data_kag+N155+E70
_audit_creation_date              2025-01-21
_audit_creation_method            'Materials Studio'
_symmetry_space_group_name_H-M    'P1'
_symmetry_Int_Tables_number       1
_symmetry_cell_setting            triclinic
loop_
_symmetry_equiv_pos_as_xyz
  x,y,z
_cell_length_a                    23.0136
_cell_length_b                    24.8144
_cell_length_c                    10.1082
_cell_angle_alpha                 90.6891
_cell_angle_beta                  86.7823
_cell_angle_gamma                 128.8824
loop_
_atom_site_label
_atom_site_type_symbol
_atom_site_fract_x
_atom_site_fract_y
_atom_site_fract_z
_atom_site_U_iso_or_equiv
_atom_site_adp_type
_atom_site_occupancy
C0     C     0.41685   0.30484   0.07110   0.00000  Uiso   1.00
Ho1    Ho    0.46844   0.43123   0.03792   0.00000  Uiso   1.00
C2     C     0.56680   0.69208   0.92657   0.00000  Uiso   1.00
Ho3    Ho    0.52329   0.57049   0.99183   0.00000  Uiso   1.00
O4     O     0.43581   0.34528   0.16879   0.00000  Uiso   1.00
O5     O     0.42551   0.33212   0.95791   0.00000  Uiso   1.00
O6     O     0.46288   0.40983   0.24656   0.00000  Uiso   1.00
O7     O     0.50673   0.51424   0.17452   0.00000  Uiso   1.00
C8     C     0.49174   0.46937   0.27923   0.00000  Uiso   1.00
C9     C     0.50831   0.52727   0.74937   0.00000  Uiso   1.00
O10    O     0.58809   0.48005   0.01315   0.00000  Uiso   1.00
O11    O     0.63188   0.59162   0.97188   0.00000  Uiso   1.00
O12    O     0.55019   0.64614   0.84261   0.00000  Uiso   1.00
O13    O     0.56199   0.67379   0.04735   0.00000  Uiso   1.00
O14    O     0.52575   0.58416   0.77381   0.00000  Uiso   1.00
O15    O     0.49255   0.48927   0.86341   0.00000  Uiso   1.00
O16    O     0.40379   0.52120   1.01449   0.00000  Uiso   1.00
O17    O     0.35982   0.41003   0.05308   0.00000  Uiso   1.00
C18    C     0.34995   0.45561   1.03656   0.00000  Uiso   1.00
C19    C     0.64146   0.54537  -0.01673   0.00000  Uiso   1.00
C20    C     0.14770   0.47140   0.02171   0.00000  Uiso   1.00
Ho21   Ho    0.05397   0.49585   0.01195   0.00000  Uiso   1.00
C22    C     0.84572   0.53104   0.95686   0.00000  Uiso   1.00
Ho23   Ho    0.93821   0.50703   0.99146   0.00000  Uiso   1.00
O24    O     0.12219   0.48193   0.12637   0.00000  Uiso   1.00
O25    O     0.12908   0.48101   0.91326   0.00000  Uiso   1.00
O26    O     0.07476   0.49262   0.21471   0.00000  Uiso   1.00
O27    O     0.98555   0.49826   0.16688   0.00000  Uiso   1.00
C28    C     0.02392   0.49194   0.26223   0.00000  Uiso   1.00
C29    C    -0.03161   0.49883   0.74199   0.00000  Uiso   1.00
O30    O     0.12908   0.61062   0.00536   0.00000  Uiso   1.00
O31    O     0.03513   0.61764   0.98634   0.00000  Uiso   1.00
O32    O     0.87761   0.52262   0.86022   0.00000  Uiso   1.00
O33    O     0.85859   0.52100   0.07179   0.00000  Uiso   1.00
O34    O     0.92372   0.50893   0.77448   0.00000  Uiso   1.00
O35    O     0.00197   0.49778   0.84953   0.00000  Uiso   1.00
O36    O     0.86300   0.39217   0.99768   0.00000  Uiso   1.00
O37    O     0.95729   0.38518   0.01782   0.00000  Uiso   1.00
C38    C     0.88723   0.35710   1.01020   0.00000  Uiso   1.00
C39    C     0.10501   0.64574  -0.00591   0.00000  Uiso   1.00
C40    C     0.55356   0.88139   0.92371   0.00000  Uiso   1.00
Ho41   Ho    0.51467   0.95678   0.98754   0.00000  Uiso   1.00
C42    C     0.43168   0.11791   0.06316   0.00000  Uiso   1.00
Ho43   Ho    0.47709   0.04592   0.03211   0.00000  Uiso   1.00
O44    O     0.54110   0.91032   0.83882   0.00000  Uiso   1.00
O45    O     0.54312   0.89109   0.04466   0.00000  Uiso   1.00
O46    O     0.52442   0.94980   0.76747   0.00000  Uiso   1.00
O47    O     0.49930   0.01295   0.85809   0.00000  Uiso   1.00
C48    C     0.51387  -0.00860   0.74382   0.00000  Uiso   1.00
C49    C     0.48798   1.02805   0.27632   0.00000  Uiso   1.00
O50    O     0.39195   0.87453   0.99284   0.00000  Uiso   1.00
O51    O     0.36325   0.94685   0.03177   0.00000  Uiso   1.00
O52    O     0.44533   0.09621   0.16212   0.00000  Uiso   1.00
O53    O     0.44664   0.10468   0.94963   0.00000  Uiso   1.00
O54    O     0.46620   0.05945   0.23969   0.00000  Uiso   1.00
O55    O     0.49960   0.99600   0.17311   0.00000  Uiso   1.00
O56    O     0.59987   0.12872   0.02516   0.00000  Uiso   1.00
O57    O     0.62873   0.05574   0.98869   0.00000  Uiso   1.00
C58    C     0.64741   0.11670   0.00856   0.00000  Uiso   1.00
C59    C     0.34435   0.88613   1.01028   0.00000  Uiso   1.00
N60    N     0.49154   0.50417   0.50959   0.00000  Uiso   1.00
H61    H     0.60711   0.47966   0.37568   0.00000  Uiso   1.00
C62    C     0.52246   0.49259   0.40867   0.00000  Uiso   1.00
C63    C     0.57794   0.49059   0.44383   0.00000  Uiso   1.00
C64    C     0.52449   0.51037   0.62155   0.00000  Uiso   1.00
S65    S     0.59385   0.50341   0.60711   0.00000  Uiso   1.00
N66    N    -0.01427   0.50257   0.49295   0.00000  Uiso   1.00
H67    H     0.97503   0.39457   0.70147   0.00000  Uiso   1.00
C68    C     0.97525   0.47420   0.61380   0.00000  Uiso   1.00
C69    C     0.98040   0.42199   0.61313   0.00000  Uiso   1.00
C70    C    -0.00117   0.47020   0.40192   0.00000  Uiso   1.00
S71    S     0.99874   0.40576   0.46094   0.00000  Uiso   1.00
N72    N     0.49778   0.99354   0.50164   0.00000  Uiso   1.00
H73    H     0.58117   0.15317   0.39147   0.00000  Uiso   1.00
C74    C     0.51716   0.04153   0.40852   0.00000  Uiso   1.00
C75    C     0.56165   0.10838   0.45225   0.00000  Uiso   1.00
C76    C     0.52868   0.02598   0.61583   0.00000  Uiso   1.00
S77    S     0.58074   0.11416   0.61290   0.00000  Uiso   1.00
N78    N     0.25621   0.47432   0.04471   0.00000  Uiso   1.00
H79    H     0.21598   0.32238   0.99748   0.00000  Uiso   1.00
C80    C     0.27295   0.43121   1.03626   0.00000  Uiso   1.00
C81    C     0.21269   0.36377   1.01129   0.00000  Uiso   1.00
C82    C     0.18320   0.43913   1.02525   0.00000  Uiso   1.00
S83    S     0.13280   0.35281   0.99413   0.00000  Uiso   1.00
N84    N     0.75994   0.24176   1.00450   0.00000  Uiso   1.00
H85    H     0.91449   0.26418   0.05735   0.00000  Uiso   1.00
C86    C     0.83406   0.28063   0.01765   0.00000  Uiso   1.00
C87    C     0.85726   0.24218   0.04194   0.00000  Uiso   1.00
C88    C     0.72784   0.17380   0.01774   0.00000  Uiso   1.00
S89    S     0.78694   0.15566   0.04715   0.00000  Uiso   1.00
N90    N     0.73631   0.52836  -0.01544   0.00000  Uiso   1.00
H91    H     0.89701   0.65276   0.82678   0.00000  Uiso   1.00
C92    C     0.80635   0.55873   0.93651   0.00000  Uiso   1.00
C93    C     0.84023   0.62083   0.87013   0.00000  Uiso   1.00
C94    C     0.71710   0.56797   0.95411   0.00000  Uiso   1.00
S95    S     0.78469   0.64404   0.86808   0.00000  Uiso   1.00
N96    N     0.23179   0.76092   1.00672   0.00000  Uiso   1.00
H97    H     0.23000   0.89192  -0.03321   0.00000  Uiso   1.00
C98    C     0.26382   0.82873   0.00011   0.00000  Uiso   1.00
C99    C     0.21438   0.84089  -0.02243   0.00000  Uiso   1.00
C100   C     0.15780   0.72217  -0.01080   0.00000  Uiso   1.00
S101   S     0.12592   0.76750  -0.03808   0.00000  Uiso   1.00
N102   N     0.57011   0.79297   0.95686   0.00000  Uiso   1.00
H103   H     0.60490   0.87590  -0.32730   0.00000  Uiso   1.00
C104   C     0.57765   0.84125  -0.11952   0.00000  Uiso   1.00
C105   C     0.59845   0.84202  -0.25066   0.00000  Uiso   1.00
C106   C     0.58557   0.75738  -0.11798   0.00000  Uiso   1.00
S107   S     0.60919   0.78151  -0.28314   0.00000  Uiso   1.00
N108   N     0.43357   0.21736   0.09413   0.00000  Uiso   1.00
H109   H     0.27343   0.18230   1.03625   0.00000  Uiso   1.00
C110   C     0.38805   0.23336   1.08503   0.00000  Uiso   1.00
C111   C     0.31627   0.17805   1.05564   0.00000  Uiso   1.00
C112   C     0.39516   0.14911   1.07672   0.00000  Uiso   1.00
S113   S     0.30329   0.10279   1.04159   0.00000  Uiso   1.00
loop_
_geom_bond_atom_site_label_1
_geom_bond_atom_site_label_2
_geom_bond_distance
_geom_bond_site_symmetry_2
_ccdc_geom_bond_type
C0     O4      1.283   .     A
C0     O5      1.277   1_554 A
C0     C110    1.458   1_554 S
Ho1    O4      2.193   .     S
Ho1    O6      2.158   .     S
Ho1    O7      2.171   .     S
Ho1    O10     2.203   .     S
Ho1    O17     2.204   .     S
Ho1    O5      2.161   1_554 S
Ho1    O15     2.108   1_554 S
C2     O12     1.277   .     A
C2     O13     1.282   1_556 A
C2     C106    1.460   1_556 S
Ho3    O11     2.205   .     S
Ho3    O12     2.165   .     S
Ho3    O14     2.226   .     S
Ho3    O15     2.121   .     S
Ho3    O16     2.196   .     S
Ho3    O7      2.195   1_556 S
Ho3    O13     2.199   1_556 S
O5     C0      1.277   1_556 A
O5     Ho1     2.161   1_556 S
O6     C8      1.230   .     D
O7     C8      1.409   .     S
O7     Ho3     2.195   1_554 S
C8     C62     1.455   .     S
C9     O14     1.227   .     D
C9     O15     1.378   .     S
C9     C64     1.454   .     S
O10    C19     1.303   .     A
O11    C19     1.305   1_556 A
O13    C2      1.282   1_554 A
O13    Ho3     2.199   1_554 S
O15    Ho1     2.108   1_556 S
O16    C18     1.296   .     A
O17    C18     1.300   1_554 A
C18    C80     1.470   .     S
C18    O17     1.300   1_556 A
C19    O11     1.305   1_554 A
C19    C94     1.467   1_554 S
C20    O24     1.284   .     A
C20    O25     1.277   1_554 A
C20    C82     1.461   1_554 S
Ho21   O24     2.195   .     S
Ho21   O26     2.144   .     S
Ho21   O30     2.217   .     S
Ho21   O25     2.172   1_554 S
Ho21   O27     2.185   1_455 S
Ho21   O35     2.103   1_554 S
Ho21   O37     2.194   1_455 S
C22    O32     1.282   .     A
C22    C92     1.463   .     S
C22    O33     1.280   1_556 A
Ho23   O32     2.180   .     S
Ho23   O34     2.242   .     S
Ho23   O36     2.219   .     S
Ho23   O27     2.214   1_556 S
Ho23   O31     2.194   1_655 S
Ho23   O33     2.182   1_556 S
Ho23   O35     2.108   1_655 S
O25    C20     1.277   1_556 A
O25    Ho21    2.172   1_556 S
O26    C28     1.230   .     D
O27    Ho21    2.185   1_655 S
O27    Ho23    2.214   1_554 S
O27    C28     1.416   1_655 S
C28    C70     1.468   .     S
C28    O27     1.416   1_455 S
C29    O35     1.378   .     S
C29    O34     1.229   1_455 D
C29    C68     1.469   1_455 S
O30    C39     1.302   .     A
O31    Ho23    2.194   1_455 S
O31    C39     1.298   1_556 A
O33    C22     1.280   1_554 A
O33    Ho23    2.182   1_554 S
O34    C29     1.229   1_655 D
O35    Ho21    2.103   1_556 S
O35    Ho23    2.108   1_455 S
O36    C38     1.305   .     A
O37    Ho21    2.194   1_655 S
O37    C38     1.301   1_554 A
C38    O37     1.301   1_556 A
C38    C86     1.477   1_556 S
C39    C100    1.476   .     S
C39    O31     1.298   1_554 A
C40    O44     1.279   .     A
C40    O45     1.282   1_556 A
C40    C104    1.465   1_556 S
Ho41   O44     2.167   .     S
Ho41   O46     2.239   .     S
Ho41   O50     2.212   .     S
Ho41   O45     2.196   1_556 S
Ho41   O47     2.120   1_565 S
Ho41   O55     2.212   1_556 S
Ho41   O57     2.198   1_565 S
C42    O52     1.285   .     A
C42    O53     1.277   1_554 A
C42    C112    1.458   1_554 S
Ho43   O52     2.194   .     S
Ho43   O54     2.147   .     S
Ho43   O56     2.214   .     S
Ho43   O47     2.101   1_554 S
Ho43   O51     2.196   1_545 S
Ho43   O53     2.165   1_554 S
Ho43   O55     2.183   1_545 S
O45    C40     1.282   1_554 A
O45    Ho41    2.196   1_554 S
O46    C48     1.229   1_565 D
O47    C48     1.378   .     S
O47    Ho41    2.120   1_545 S
O47    Ho43    2.101   1_556 S
C48    C76     1.462   .     S
C48    O46     1.229   1_545 D
C49    O55     1.417   .     S
C49    O54     1.230   1_565 D
C49    C74     1.468   1_565 S
O50    C59     1.299   .     A
O51    Ho43    2.196   1_565 S
O51    C59     1.299   1_554 A
O53    C42     1.277   1_556 A
O53    Ho43    2.165   1_556 S
O54    C49     1.230   1_545 D
O55    Ho41    2.212   1_554 S
O55    Ho43    2.183   1_565 S
O56    C58     1.305   .     A
O57    Ho41    2.198   1_545 S
O57    C58     1.304   1_556 A
C58    C88     1.472   .     S
C58    O57     1.304   1_554 A
C59    O51     1.299   1_556 A
C59    C98     1.476   1_556 S
N60    C62     1.341   .     A
N60    C64     1.351   .     A
H61    C63     1.082   .     S
C62    C63     1.375   .     A
C63    S65     1.694   .     A
C64    S65     1.708   .     A
N66    C70     1.356   .     A
N66    C68     1.349   1_455 A
H67    C69     1.083   .     S
C68    C69     1.373   .     A
C68    N66     1.349   1_655 A
C68    C29     1.469   1_655 S
C69    S71     1.683   .     A
C70    S71     1.712   1_455 A
S71    C70     1.712   1_655 A
N72    C74     1.348   1_565 A
N72    C76     1.355   1_565 A
H73    C75     1.083   .     S
C74    C75     1.377   .     A
C74    N72     1.348   1_545 A
C74    C49     1.468   1_545 S
C75    S77     1.687   .     A
C76    S77     1.712   .     A
C76    N72     1.355   1_545 A
N78    C80     1.346   1_554 A
N78    C82     1.347   1_554 A
H79    C81     1.083   .     S
C80    C81     1.380   .     A
C80    N78     1.346   1_556 A
C81    S83     1.700   .     A
C82    S83     1.714   .     A
C82    N78     1.347   1_556 A
C82    C20     1.461   1_556 S
N84    C86     1.347   1_556 A
N84    C88     1.356   1_556 A
H85    C87     1.084   .     S
C86    C87     1.384   .     A
C86    N84     1.347   1_554 A
C86    C38     1.477   1_554 S
C87    S89     1.692   .     A
C88    S89     1.720   .     A
C88    N84     1.356   1_554 A
N90    C92     1.341   1_554 A
N90    C94     1.351   1_554 A
H91    C93     1.082   .     S
C92    C93     1.375   .     A
C92    N90     1.341   1_556 A
C93    S95     1.701   .     A
C94    S95     1.715   .     A
C94    N90     1.351   1_556 A
C94    C19     1.467   1_556 S
N96    C98     1.349   1_556 A
N96    C100    1.353   1_556 A
H97    C99     1.082   .     S
C98    C99     1.378   .     A
C98    N96     1.349   1_554 A
C98    C59     1.476   1_554 S
C99    S101    1.691   .     A
C100   S101    1.716   .     A
C100   N96     1.353   1_554 A
N102   C104    1.345   1_556 A
N102   C106    1.352   1_556 A
H103   C105    1.084   .     S
C104   C105    1.380   .     A
C104   N102    1.345   1_554 A
C104   C40     1.465   1_554 S
C105   S107    1.694   .     A
C106   S107    1.719   .     A
C106   N102    1.352   1_554 A
C106   C2      1.460   1_554 S
N108   C110    1.341   1_554 A
N108   C112    1.346   1_554 A
H109   C111    1.084   .     S
C110   C111    1.378   .     A
C110   N108    1.341   1_556 A
C110   C0      1.458   1_556 S
C111   S113    1.701   .     A
C112   S113    1.715   .     A
C112   N108    1.346   1_556 A
C112   C42     1.458   1_556 S
