data_kag+N173+E225
_audit_creation_date              2025-01-21
_audit_creation_method            'Materials Studio'
_symmetry_space_group_name_H-M    'P1'
_symmetry_Int_Tables_number       1
_symmetry_cell_setting            triclinic
loop_
_symmetry_equiv_pos_as_xyz
  x,y,z
_cell_length_a                    40.9640
_cell_length_b                    41.7720
_cell_length_c                    19.4393
_cell_angle_alpha                 99.1153
_cell_angle_beta                  97.5345
_cell_angle_gamma                 117.5768
loop_
_atom_site_label
_atom_site_type_symbol
_atom_site_fract_x
_atom_site_fract_y
_atom_site_fract_z
_atom_site_U_iso_or_equiv
_atom_site_adp_type
_atom_site_occupancy
Gd0    Gd    0.50960   0.47014   0.98093   0.00000  Uiso   1.00
Gd1    Gd    0.55787   0.57699   0.03210   0.00000  Uiso   1.00
O2     O     0.53638   0.54662   0.11699   0.00000  Uiso   1.00
O3     O     0.54929   0.50116   0.09098   0.00000  Uiso   1.00
O4     O     0.47514   0.49676   0.01535   0.00000  Uiso   1.00
O5     O     0.49702   0.54503   0.96712   0.00000  Uiso   1.00
O6     O     0.52687   0.42713   0.96462   0.00000  Uiso   1.00
O7     O     0.49325   0.42685   0.04143   0.00000  Uiso   1.00
O8     O     0.53056   0.49929   0.89381   0.00000  Uiso   1.00
C9     C     0.51084   0.41200   1.01210   0.00000  Uiso   1.00
O10    O     0.52138   0.54778   0.91918   0.00000  Uiso   1.00
O11    O     0.57131   0.50313   1.03931   0.00000  Uiso   1.00
C12    C     0.47046   0.52071  -0.01096   0.00000  Uiso   1.00
O13    O     0.59335   0.55240  -0.00572   0.00000  Uiso   1.00
O14    O     0.53857   0.61739   0.05953   0.00000  Uiso   1.00
O15    O     0.57394   0.62549   0.98369   0.00000  Uiso   1.00
C16    C     0.54256   0.52189   0.13602   0.00000  Uiso   1.00
C17    C     0.55594   0.63751   0.01928   0.00000  Uiso   1.00
C18    C     0.59622   0.52546   0.01149   0.00000  Uiso   1.00
C19    C     0.52756   0.52593   0.87538   0.00000  Uiso   1.00
Gd20   Gd    0.01803   0.54139   1.00459   0.00000  Uiso   1.00
Gd21   Gd    0.05487   0.51359   0.01277   0.00000  Uiso   1.00
O22    O     0.06256   0.52671   0.13027   0.00000  Uiso   1.00
O23    O     0.02338   0.54940   0.12142   0.00000  Uiso   1.00
O24    O     0.07057   0.59543   0.02236   0.00000  Uiso   1.00
O25    O     0.10654   0.56952   0.02274   0.00000  Uiso   1.00
O26    O     0.95448   0.51304   0.98824   0.00000  Uiso   1.00
O27    O     0.98451   0.57109   0.00071   0.00000  Uiso   1.00
O28    O     0.01366   0.53178   0.88797   0.00000  Uiso   1.00
C29    C     0.95266   0.54281  -0.00661   0.00000  Uiso   1.00
O30    O     0.04625   0.50190   0.89493   0.00000  Uiso   1.00
O31    O     0.96625   0.48568   0.98597   0.00000  Uiso   1.00
C32    C     0.10308   0.59860   0.02657   0.00000  Uiso   1.00
O33    O     0.00185   0.45992   1.00299   0.00000  Uiso   1.00
O34    O     0.11828   0.54172   0.02581   0.00000  Uiso   1.00
O35    O     0.08836   0.48394   1.01742   0.00000  Uiso   1.00
C36    C     0.04455   0.54089   0.15892   0.00000  Uiso   1.00
C37    C     0.12018   0.51211   1.02405   0.00000  Uiso   1.00
C38    C     0.96931   0.45698   0.98984   0.00000  Uiso   1.00
C39    C     0.02864   0.51424   0.85863   0.00000  Uiso   1.00
Gd40   Gd    0.48250   0.99048   0.98131   0.00000  Uiso   1.00
Gd41   Gd    0.59045   0.06132   0.02805   0.00000  Uiso   1.00
O42    O     0.55845   0.05900   0.11521   0.00000  Uiso   1.00
O43    O     0.51846  -0.00144   0.08897   0.00000  Uiso   1.00
O44    O     0.50136   0.05200   0.01891   0.00000  Uiso   1.00
O45    O     0.55109   0.07787   0.97110   0.00000  Uiso   1.00
O46    O     0.44905   0.92931   0.96053   0.00000  Uiso   1.00
O47    O     0.43842   0.96298   0.04057   0.00000  Uiso   1.00
O48    O     0.51312  -0.00592   0.89112   0.00000  Uiso   1.00
C49    C     0.43050   0.93013   1.00816   0.00000  Uiso   1.00
O50    O     0.55716   0.05410   0.91775   0.00000  Uiso   1.00
O51    O     0.52381   0.97543   1.03457   0.00000  Uiso   1.00
C52    C     0.52357   0.07858  -0.00522   0.00000  Uiso   1.00
O53    O     0.57212   1.00080  -0.01527   0.00000  Uiso   1.00
O54    O     0.62925   0.12239   0.05501   0.00000  Uiso   1.00
O55    O     0.63712   0.08685   0.97384   0.00000  Uiso   1.00
C56    C     0.53658   0.03040   0.13434   0.00000  Uiso   1.00
C57    C     0.64911   0.11994   0.01103   0.00000  Uiso   1.00
C58    C     0.54782   0.97282   1.00193   0.00000  Uiso   1.00
C59    C     0.53646   0.02237   0.87218   0.00000  Uiso   1.00
C60    C     0.54191   0.51709   0.21026   0.00000  Uiso   1.00
C61    C     0.53063   0.53714   0.25741   0.00000  Uiso   1.00
C62    C     0.52784   0.53123   0.32588   0.00000  Uiso   1.00
C63    C     0.53743   0.50586   0.34987   0.00000  Uiso   1.00
C64    C     0.54856   0.48582   0.30274   0.00000  Uiso   1.00
C65    C     0.55112   0.49152   0.23400   0.00000  Uiso   1.00
C66    C     0.54024   0.52675   0.47477   0.00000  Uiso   1.00
H67    H     0.54993   0.49174   0.77527   0.00000  Uiso   1.00
H68    H     0.55696   0.50197   0.65671   0.00000  Uiso   1.00
H69    H     0.52002   0.58324   0.69116   0.00000  Uiso   1.00
H70    H     0.51404   0.57397   0.81138   0.00000  Uiso   1.00
H71    H     0.52279   0.49156   0.54402   0.00000  Uiso   1.00
O72    O     0.54071   0.54937   0.59526   0.00000  Uiso   1.00
O73    O     0.53370   0.49768   0.41719   0.00000  Uiso   1.00
C74    C     0.53055   0.53135   0.80224   0.00000  Uiso   1.00
C75    C     0.54254   0.51125   0.75708   0.00000  Uiso   1.00
C76    C     0.54608   0.51674   0.68858   0.00000  Uiso   1.00
C77    C     0.53679   0.54193   0.66296   0.00000  Uiso   1.00
C78    C     0.52598   0.56278   0.70889   0.00000  Uiso   1.00
C79    C     0.52266   0.55749   0.77757   0.00000  Uiso   1.00
C80    C     0.53405   0.51997   0.53834   0.00000  Uiso   1.00
H81    H     0.51715   0.54577   0.35896   0.00000  Uiso   1.00
H82    H     0.55521   0.46556   0.31946   0.00000  Uiso   1.00
H83    H     0.52312   0.55688   0.24084   0.00000  Uiso   1.00
H84    H     0.55150   0.55523   0.46965   0.00000  Uiso   1.00
H85    H     0.56000   0.47567   0.19927   0.00000  Uiso   1.00
C86    C     0.02732   0.50987   0.78300   0.00000  Uiso   1.00
C87    C     0.05521   0.53836   0.76072   0.00000  Uiso   1.00
C88    C     0.05482   0.53458   0.68837   0.00000  Uiso   1.00
C89    C     0.02560   0.50250   0.63731   0.00000  Uiso   1.00
C90    C    -0.00158   0.47367   0.66049   0.00000  Uiso   1.00
C91    C    -0.00080   0.47728   0.73334   0.00000  Uiso   1.00
C92    C     0.03653   0.53076   0.54080   0.00000  Uiso   1.00
H93    H     0.98753   0.52193   0.22697   0.00000  Uiso   1.00
H94    H     0.99353   0.53136   0.35729   0.00000  Uiso   1.00
H95    H     0.11500   0.58416   0.39174   0.00000  Uiso   1.00
H96    H     0.10911   0.57373   0.26124   0.00000  Uiso   1.00
H97    H     0.03963   0.50536   0.44232   0.00000  Uiso   1.00
O98    O     0.05837   0.56438   0.45609   0.00000  Uiso   1.00
O99    O     0.02358   0.49783   0.56373   0.00000  Uiso   1.00
C100   C     0.04799   0.54725   0.23560   0.00000  Uiso   1.00
C101   C     0.01540   0.53565   0.26267   0.00000  Uiso   1.00
C102   C     0.01874   0.54109   0.33624   0.00000  Uiso   1.00
C103   C     0.05474   0.55867   0.38269   0.00000  Uiso   1.00
C104   C     0.08726   0.57078   0.35572   0.00000  Uiso   1.00
C105   C     0.08386   0.56451   0.28205   0.00000  Uiso   1.00
C106   C     0.04422   0.53099   0.47703   0.00000  Uiso   1.00
H107   H     0.07740   0.55662   0.67268   0.00000  Uiso   1.00
H108   H     0.97651   0.44853   0.62193   0.00000  Uiso   1.00
H109   H     0.07727   0.56346   0.79937   0.00000  Uiso   1.00
H110   H     0.04049   0.55648   0.57408   0.00000  Uiso   1.00
H111   H     0.97773   0.45509   0.75087   0.00000  Uiso   1.00
C112   C     0.53304   0.03379   0.20999   0.00000  Uiso   1.00
C113   C     0.51808   1.00224   0.23803   0.00000  Uiso   1.00
C114   C     0.51639   1.00590   0.31033   0.00000  Uiso   1.00
C115   C     0.52975   0.04137   0.35609   0.00000  Uiso   1.00
C116   C     0.54280   0.07247   0.32703   0.00000  Uiso   1.00
C117   C     0.54489   0.06891   0.25512   0.00000  Uiso   1.00
C118   C     0.53561   0.02427   0.46791   0.00000  Uiso   1.00
H119   H     0.56235   0.07752   0.80086   0.00000  Uiso   1.00
H120   H     0.56483   0.07106   0.67456   0.00000  Uiso   1.00
H121   H     0.51848   0.95248   0.64444   0.00000  Uiso   1.00
H122   H     0.51611   0.95877   0.77116   0.00000  Uiso   1.00
H123   H     0.52547   0.04734   0.56082   0.00000  Uiso   1.00
O124   O     0.54126   0.00525   0.57587   0.00000  Uiso   1.00
O125   O     0.52817   0.04678   0.42885   0.00000  Uiso   1.00
C126   C     0.53840   0.01858   0.79577   0.00000  Uiso   1.00
C127   C     0.55240   0.05003   0.76714   0.00000  Uiso   1.00
C128   C     0.55327   0.04622   0.69449   0.00000  Uiso   1.00
C129   C     0.54004   0.01076   0.64881   0.00000  Uiso   1.00
C130   C     0.52757   0.97975   0.67820   0.00000  Uiso   1.00
C131   C     0.52625   0.98344   0.75048   0.00000  Uiso   1.00
C132   C     0.53383   0.02779   0.53688   0.00000  Uiso   1.00
H133   H     0.50422   0.98100   0.32997   0.00000  Uiso   1.00
H134   H     0.55189   0.09975   0.36076   0.00000  Uiso   1.00
H135   H     0.50799   0.97472   0.20425   0.00000  Uiso   1.00
H136   H     0.54397   1.00472   0.44400   0.00000  Uiso   1.00
H137   H     0.55557   0.09366   0.23477   0.00000  Uiso   1.00
C138   C     0.43402   0.52032  -0.01744   0.00000  Uiso   1.00
C139   C     0.41808   0.52021   0.04208   0.00000  Uiso   1.00
C140   C     0.38439   0.52157   0.03709   0.00000  Uiso   1.00
C141   C     0.36523   0.52181   0.97132   0.00000  Uiso   1.00
C142   C     0.38140   0.52193   0.91202   0.00000  Uiso   1.00
C143   C     0.41562   0.52149   0.91756   0.00000  Uiso   1.00
C144   C     0.30842   0.51176   0.01064   0.00000  Uiso   1.00
H145   H     0.12746   0.45241   0.97037   0.00000  Uiso   1.00
H146   H     0.18602   0.44860   0.98253   0.00000  Uiso   1.00
H147   H     0.25035   0.56355   0.10152   0.00000  Uiso   1.00
H148   H     0.19192   0.56797   0.08862   0.00000  Uiso   1.00
H149   H     0.27160   0.52963   0.96909   0.00000  Uiso   1.00
O150   O     0.25439   0.50211   0.05439   0.00000  Uiso   1.00
O151   O     0.33190   0.52450   0.96307   0.00000  Uiso   1.00
C152   C     0.15541   0.51041   1.02909   0.00000  Uiso   1.00
C153   C     0.15411   0.47682   0.99924   0.00000  Uiso   1.00
C154   C     0.18729   0.47460   1.00587   0.00000  Uiso   1.00
C155   C     0.22204   0.50574   1.04282   0.00000  Uiso   1.00
C156   C     0.22358   0.53946   0.07219   0.00000  Uiso   1.00
C157   C     0.19041   0.54189   0.06483   0.00000  Uiso   1.00
C158   C     0.27802   0.51606   1.00800   0.00000  Uiso   1.00
H159   H     0.37430   0.52348   0.08537   0.00000  Uiso   1.00
H160   H     0.36739   0.52250   0.86128   0.00000  Uiso   1.00
H161   H     0.43247   0.52049   0.09325   0.00000  Uiso   1.00
H162   H     0.31316   0.49685   0.04812   0.00000  Uiso   1.00
H163   H     0.42752   0.52168   0.87094   0.00000  Uiso   1.00
C164   C     0.93495   0.42077  -0.02270   0.00000  Uiso   1.00
C165   C     0.93138   0.39749   0.02387   0.00000  Uiso   1.00
C166   C     0.89802   0.36336   0.01171   0.00000  Uiso   1.00
C167   C     0.86819   0.35150   0.95112   0.00000  Uiso   1.00
C168   C     0.87217   0.37515   0.90537   0.00000  Uiso   1.00
C169   C     0.90496   0.40959   0.91866   0.00000  Uiso   1.00
C170   C     0.83035   0.28997  -0.03108   0.00000  Uiso   1.00
H171   H     0.68304   0.12744   0.89875   0.00000  Uiso   1.00
H172   H     0.74548   0.17812   0.89674   0.00000  Uiso   1.00
H173   H     0.75807   0.23402   0.11228   0.00000  Uiso   1.00
H174   H     0.69521   0.18417   0.11439   0.00000  Uiso   1.00
H175   H     0.77112   0.26333   0.94358   0.00000  Uiso   1.00
O176   O     0.79311   0.23594   0.00647   0.00000  Uiso   1.00
O177   O     0.83310   0.31847   0.93623   0.00000  Uiso   1.00
C178   C     0.68425   0.15221   1.00638   0.00000  Uiso   1.00
C179   C     0.69874   0.15102   0.94499   0.00000  Uiso   1.00
C180   C     0.73418   0.17979   0.94366   0.00000  Uiso   1.00
C181   C     0.75577   0.20976   1.00403   0.00000  Uiso   1.00
C182   C     0.74122   0.21130   0.06498   0.00000  Uiso   1.00
C183   C     0.70543   0.18298   0.06590   0.00000  Uiso   1.00
C184   C     0.79616   0.26296   0.96938   0.00000  Uiso   1.00
H185   H     0.89557   0.34712   0.05084   0.00000  Uiso   1.00
H186   H     0.84943   0.36683   0.85936   0.00000  Uiso   1.00
H187   H     0.95387   0.40630   0.07075   0.00000  Uiso   1.00
H188   H     0.85520   0.28902  -0.00677   0.00000  Uiso   1.00
H189   H     0.90720   0.42741   0.88253   0.00000  Uiso   1.00
C190   C     0.91787   0.54478  -0.00444   0.00000  Uiso   1.00
C191   C     0.88275   0.51220   0.98226   0.00000  Uiso   1.00
C192   C     0.85049   0.51442   0.99144   0.00000  Uiso   1.00
C193   C     0.85278   0.54950   0.01267   0.00000  Uiso   1.00
C194   C     0.88808   0.58178   0.02671   0.00000  Uiso   1.00
C195   C     0.92021   0.57956   0.01733   0.00000  Uiso   1.00
C196   C     0.78516   0.52589   0.98744   0.00000  Uiso   1.00
H197   H     0.66263   0.57478  -0.01725   0.00000  Uiso   1.00
H198   H     0.71551   0.56487  -0.03740   0.00000  Uiso   1.00
H199   H     0.65480   0.45309   0.98801   0.00000  Uiso   1.00
H200   H     0.60234   0.46304   1.01049   0.00000  Uiso   1.00
H201   H     0.76077   0.55447   0.03758   0.00000  Uiso   1.00
O202   O     0.71870   0.50136   0.96385   0.00000  Uiso   1.00
O203   O     0.82186   0.55412   0.02442   0.00000  Uiso   1.00
C204   C     0.62857   0.52000  -0.00037   0.00000  Uiso   1.00
C205   C     0.66081   0.54832  -0.01465   0.00000  Uiso   1.00
C206   C     0.69114   0.54279  -0.02569   0.00000  Uiso   1.00
C207   C     0.68954   0.50860   0.97688   0.00000  Uiso   1.00
C208   C     0.65686   0.47992   0.98825   0.00000  Uiso   1.00
C209   C     0.62694   0.48568   1.00087   0.00000  Uiso   1.00
C210   C     0.75562   0.52972  -0.00094   0.00000  Uiso   1.00
H211   H     0.82446   0.48867   0.98443   0.00000  Uiso   1.00
H212   H     0.89076   0.60886   0.04597   0.00000  Uiso   1.00
H213   H     0.88042   0.48501   0.96637   0.00000  Uiso   1.00
H214   H     0.77997   0.50145   0.94815   0.00000  Uiso   1.00
H215   H     0.94715   0.60507   0.02930   0.00000  Uiso   1.00
C216   C     0.40305   0.89569   0.02487   0.00000  Uiso   1.00
C217   C     0.37799   0.89598   0.06757   0.00000  Uiso   1.00
C218   C     0.35227   0.86293   0.08272   0.00000  Uiso   1.00
C219   C     0.35128   0.82909   0.05531   0.00000  Uiso   1.00
C220   C     0.37700   0.82915   0.01450   0.00000  Uiso   1.00
C221   C     0.40235   0.86197  -0.00127   0.00000  Uiso   1.00
C222   C     0.28899   0.78701   0.06292   0.00000  Uiso   1.00
H223   H     0.17539   0.61763   0.01128   0.00000  Uiso   1.00
H224   H     0.22805   0.68038   0.02477   0.00000  Uiso   1.00
H225   H     0.15763   0.72725   0.07775   0.00000  Uiso   1.00
H226   H     0.10458   0.66477   0.06105   0.00000  Uiso   1.00
H227   H     0.27268   0.73700   0.09393   0.00000  Uiso   1.00
O228   O     0.22524   0.74597   0.06074   0.00000  Uiso   1.00
O229   O     0.32692   0.79554   0.07107   0.00000  Uiso   1.00
C230   C     0.13604   0.63622   0.03660   0.00000  Uiso   1.00
C231   C     0.17144   0.64142   0.02706   0.00000  Uiso   1.00
C232   C     0.20176   0.67752   0.03572   0.00000  Uiso   1.00
C233   C     0.19727   0.70906   0.05561   0.00000  Uiso   1.00
C234   C     0.16186   0.70351   0.06415   0.00000  Uiso   1.00
C235   C     0.13161   0.66771   0.05454   0.00000  Uiso   1.00
C236   C     0.26340   0.75504   0.07408   0.00000  Uiso   1.00
H237   H     0.33356   0.86379   0.11657   0.00000  Uiso   1.00
H238   H     0.37707   0.80350  -0.00579   0.00000  Uiso   1.00
H239   H     0.37824   0.92166   0.08912   0.00000  Uiso   1.00
H240   H     0.27939   0.80497   0.04350   0.00000  Uiso   1.00
H241   H     0.42180   0.86106  -0.03326   0.00000  Uiso   1.00
C242   C     0.54739   0.93727  -0.01612   0.00000  Uiso   1.00
C243   C     0.57465   0.93209   0.02423   0.00000  Uiso   1.00
C244   C     0.57500   0.89855   0.00604   0.00000  Uiso   1.00
C245   C     0.54805   0.86983   0.94695   0.00000  Uiso   1.00
C246   C     0.52129   0.87542   0.90587   0.00000  Uiso   1.00
C247   C     0.52063   0.90882   0.92465   0.00000  Uiso   1.00
C248   C     0.54818   0.81866  -0.01757   0.00000  Uiso   1.00
H249   H     0.54263   0.66315   0.90311   0.00000  Uiso   1.00
H250   H     0.53870   0.71996   0.90563   0.00000  Uiso   1.00
H251   H     0.56676   0.74764   0.13713   0.00000  Uiso   1.00
H252   H     0.56837   0.68962   0.13392   0.00000  Uiso   1.00
H253   H     0.55837   0.77930   0.92347   0.00000  Uiso   1.00
O254   O     0.55124   0.77186   0.03044   0.00000  Uiso   1.00
O255   O     0.54832   0.83624   0.92663   0.00000  Uiso   1.00
C256   C     0.55639   0.67270   1.01841   0.00000  Uiso   1.00
C257   C     0.54871   0.68196   0.95426   0.00000  Uiso   1.00
C258   C     0.54683   0.71478   0.95604   0.00000  Uiso   1.00
C259   C     0.55395   0.73920   1.02253   0.00000  Uiso   1.00
C260   C     0.56177   0.72954   0.08581   0.00000  Uiso   1.00
C261   C     0.56268   0.69656   0.08394   0.00000  Uiso   1.00
C262   C     0.55268   0.78879   0.97334   0.00000  Uiso   1.00
H263   H     0.59642   0.89504   0.03747   0.00000  Uiso   1.00
H264   H     0.50071   0.85363   0.85983   0.00000  Uiso   1.00
H265   H     0.59561   0.95402   0.06965   0.00000  Uiso   1.00
H266   H     0.54350   0.82855   0.03350   0.00000  Uiso   1.00
H267   H     0.49968   0.91267   0.89241   0.00000  Uiso   1.00
C268   C     0.51259   0.38011   0.03191   0.00000  Uiso   1.00
C269   C     0.53170   0.36425   0.99770   0.00000  Uiso   1.00
C270   C     0.53149   0.33276   1.01410   0.00000  Uiso   1.00
C271   C     0.51204   0.31663   0.06493   0.00000  Uiso   1.00
C272   C     0.49511   0.33392   0.10217   0.00000  Uiso   1.00
C273   C     0.49505   0.36521   0.08545   0.00000  Uiso   1.00
C274   C     0.50063   0.25539   1.02135   0.00000  Uiso   1.00
H275   H     0.48566   0.10389   0.07373   0.00000  Uiso   1.00
H276   H     0.47410   0.15594   0.06348   0.00000  Uiso   1.00
H277   H     0.53353   0.17544   0.89420   0.00000  Uiso   1.00
H278   H     0.54590   0.12416   0.90483   0.00000  Uiso   1.00
H279   H     0.51427   0.22444   0.08257   0.00000  Uiso   1.00
O280   O     0.49607   0.19835   0.96792   0.00000  Uiso   1.00
O281   O     0.51030   0.28441   0.08129   0.00000  Uiso   1.00
C282   C     0.51685   0.11015  -0.00964   0.00000  Uiso   1.00
C283   C     0.49656   0.11957   0.03489   0.00000  Uiso   1.00
C284   C     0.49029   0.14946   0.02956   0.00000  Uiso   1.00
C285   C     0.50397   0.17006   0.97910   0.00000  Uiso   1.00
C286   C     0.52356   0.16022   0.93414   0.00000  Uiso   1.00
C287   C     0.53052   0.13099   0.94037   0.00000  Uiso   1.00
C288   C     0.50380   0.22576   0.02929   0.00000  Uiso   1.00
H289   H     0.54636   0.32091   0.98715   0.00000  Uiso   1.00
H290   H     0.48107   0.32246   0.14292   0.00000  Uiso   1.00
H291   H     0.54656   0.37600   0.95799   0.00000  Uiso   1.00
H292   H     0.49061   0.25666   0.96764   0.00000  Uiso   1.00
H293   H     0.48099   0.37755   0.11397   0.00000  Uiso   1.00
loop_
_geom_bond_atom_site_label_1
_geom_bond_atom_site_label_2
_geom_bond_distance
_geom_bond_site_symmetry_2
_ccdc_geom_bond_type
Gd0    O6      2.210   .     S
Gd0    O8      2.271   .     S
Gd0    O11     2.259   .     S
Gd0    O3      2.271   1_556 S
Gd0    O4      2.267   1_556 S
Gd0    O7      2.205   1_556 S
Gd1    O2      2.262   .     S
Gd1    O13     2.265   .     S
Gd1    O14     2.195   .     S
Gd1    O5      2.269   1_554 S
Gd1    O10     2.268   1_554 S
Gd1    O15     2.226   1_554 S
O2     C16     1.268   .     A
O3     C16     1.279   .     A
O3     Gd0     2.271   1_554 S
O4     C12     1.270   .     A
O4     Gd0     2.267   1_554 S
O5     Gd1     2.269   1_556 S
O5     C12     1.278   1_556 A
O6     C9      1.281   .     A
O7     Gd0     2.205   1_554 S
O7     C9      1.280   1_554 A
O8     C19     1.274   .     A
C9     O7      1.280   1_556 A
C9     C268    1.474   1_556 S
O10    C19     1.283   .     A
O10    Gd1     2.268   1_556 S
O11    C18     1.275   1_556 A
C12    C138    1.474   .     S
C12    O5      1.278   1_554 A
O13    C18     1.274   .     A
O14    C17     1.275   .     A
O15    Gd1     2.226   1_556 S
O15    C17     1.281   1_556 A
C16    C60     1.490   .     S
C17    O15     1.281   1_554 A
C17    C256    1.464   1_554 S
C18    C204    1.485   .     S
C18    O11     1.275   1_554 A
C19    C74     1.487   .     S
Gd20   O28     2.207   .     S
Gd20   O23     2.209   1_556 S
Gd20   O24     2.215   1_556 S
Gd20   O26     2.256   1_455 S
Gd20   O27     2.238   1_456 S
Gd20   O31     2.238   1_455 S
Gd21   O22     2.207   .     S
Gd21   O25     2.269   .     S
Gd21   O34     2.258   .     S
Gd21   O30     2.210   1_554 S
Gd21   O33     2.242   1_554 S
Gd21   O35     2.236   1_554 S
O22    C36     1.270   .     A
O23    C36     1.269   .     A
O23    Gd20    2.209   1_554 S
O24    C32     1.266   .     A
O24    Gd20    2.215   1_554 S
O25    C32     1.279   .     A
O26    Gd20    2.256   1_655 S
O26    C29     1.269   1_556 A
O27    C29     1.261   .     A
O27    Gd20    2.238   1_654 S
O28    C39     1.270   .     A
C29    C190    1.470   .     S
C29    O26     1.269   1_554 A
O30    C39     1.269   .     A
O30    Gd21    2.210   1_556 S
O31    C38     1.274   .     A
O31    Gd20    2.238   1_655 S
C32    C230    1.483   .     S
O33    Gd21    2.242   1_556 S
O33    C38     1.268   1_455 A
O34    C37     1.270   1_554 A
O35    C37     1.260   .     A
O35    Gd21    2.236   1_556 S
C36    C100    1.448   .     S
C37    C152    1.469   .     S
C37    O34     1.270   1_556 A
C38    O33     1.268   1_655 A
C38    C164    1.466   1_556 S
C39    C86     1.443   .     S
Gd40   O46     2.204   .     S
Gd40   O51     2.250   .     S
Gd40   O43     2.274   1_566 S
Gd40   O44     2.270   1_566 S
Gd40   O47     2.225   1_556 S
Gd40   O48     2.270   1_565 S
Gd41   O42     2.262   .     S
Gd41   O54     2.216   .     S
Gd41   O45     2.260   1_554 S
Gd41   O50     2.279   1_554 S
Gd41   O53     2.251   1_545 S
Gd41   O55     2.214   1_554 S
O42    C56     1.267   .     A
O43    C56     1.281   .     A
O43    Gd40    2.274   1_544 S
O44    C52     1.274   .     A
O44    Gd40    2.270   1_544 S
O45    Gd41    2.260   1_556 S
O45    C52     1.283   1_556 A
O46    C49     1.279   .     A
O47    Gd40    2.225   1_554 S
O47    C49     1.283   1_554 A
O48    C59     1.277   .     A
O48    Gd40    2.270   1_545 S
C49    O47     1.283   1_556 A
C49    C216    1.479   1_556 S
O50    C59     1.285   .     A
O50    Gd41    2.279   1_556 S
O51    C58     1.274   .     A
C52    C282    1.479   .     S
C52    O45     1.283   1_554 A
O53    Gd41    2.251   1_565 S
O53    C58     1.266   1_554 A
O54    C57     1.279   .     A
O55    Gd41    2.214   1_556 S
O55    C57     1.279   1_556 A
C56    C112    1.487   .     S
C57    O55     1.279   1_554 A
C57    C178    1.474   1_554 S
C58    O53     1.266   1_556 A
C58    C242    1.462   1_556 S
C59    C126    1.485   .     S
C60    C61     1.407   .     A
C60    C65     1.407   .     A
C61    C62     1.401   .     A
C61    H83     1.082   .     S
C62    C63     1.410   .     A
C62    H81     1.082   .     S
C63    C64     1.403   .     A
C63    O73     1.414   .     S
C64    C65     1.403   .     A
C64    H82     1.083   .     S
C65    H85     1.083   .     S
C66    O73     1.410   .     S
C66    C80     1.341   .     D
C66    H84     1.086   .     S
H67    C75     1.082   .     S
H68    C76     1.082   .     S
H69    C78     1.083   .     S
H70    C79     1.083   .     S
H71    C80     1.087   .     S
O72    C77     1.412   .     S
O72    C80     1.410   .     S
C74    C75     1.407   .     A
C74    C79     1.407   .     A
C75    C76     1.401   .     A
C76    C77     1.410   .     A
C77    C78     1.402   .     A
C78    C79     1.401   .     A
C86    C87     1.394   .     A
C86    C91     1.397   .     A
C87    C88     1.388   .     A
C87    H109    1.084   .     S
C88    C89     1.412   .     A
C88    H107    1.082   .     S
C89    C90     1.398   .     A
C89    O99     1.399   .     S
C90    C91     1.395   .     A
C90    H108    1.082   1_455 S
C91    H111    1.083   1_455 S
C92    O99     1.397   .     S
C92    C106    1.319   .     D
C92    H110    1.091   .     S
H93    C101    1.084   1_655 S
H94    C102    1.084   1_655 S
H95    C104    1.083   .     S
H96    C105    1.082   .     S
H97    C106    1.090   .     S
O98    C103    1.385   .     S
O98    C106    1.393   .     S
C100   C101    1.400   .     A
C100   C105    1.400   .     A
C101   C102    1.390   .     A
C101   H93     1.084   1_455 S
C102   C103    1.403   .     A
C102   H94     1.084   1_455 S
C103   C104    1.396   .     A
C104   C105    1.391   .     A
H108   C90     1.082   1_655 S
H111   C91     1.083   1_655 S
C112   C117    1.407   .     A
C112   C113    1.406   1_545 A
C113   C114    1.404   .     A
C113   H135    1.083   .     S
C113   C112    1.406   1_565 A
C114   H133    1.082   .     S
C114   C115    1.411   1_565 A
C115   C116    1.400   .     A
C115   O125    1.411   .     S
C115   C114    1.411   1_545 A
C116   C117    1.400   .     A
C116   H134    1.083   .     S
C117   H137    1.083   .     S
C118   O125    1.409   .     S
C118   C132    1.341   .     D
C118   H136    1.087   1_545 S
H119   C127    1.083   .     S
H120   C128    1.082   .     S
H121   C130    1.083   .     S
H122   C131    1.084   .     S
H123   C132    1.087   .     S
O124   C129    1.411   .     S
O124   C132    1.409   .     S
C126   C127    1.408   .     A
C126   C131    1.406   1_545 A
C127   C128    1.403   .     A
C128   C129    1.411   .     A
C129   C130    1.401   1_545 A
C130   C131    1.400   .     A
C130   C129    1.401   1_565 A
C131   C126    1.406   1_565 A
H136   C118    1.087   1_565 S
C138   C139    1.401   .     A
C138   C143    1.404   1_554 A
C139   C140    1.399   .     A
C139   H161    1.083   .     S
C140   H159    1.080   .     S
C140   C141    1.414   1_554 A
C141   C142    1.402   .     A
C141   O151    1.412   .     S
C141   C140    1.414   1_556 A
C142   C143    1.400   .     A
C142   H160    1.084   .     S
C143   H163    1.084   .     S
C143   C138    1.404   1_556 A
C144   H162    1.084   .     S
C144   O151    1.407   1_554 S
C144   C158    1.334   1_554 D
H145   C153    1.083   .     S
H146   C154    1.083   .     S
H147   C156    1.083   .     S
H148   C157    1.084   .     S
H149   C158    1.088   .     S
O150   C155    1.396   1_554 S
O150   C158    1.401   1_554 S
O151   C144    1.407   1_556 S
C152   C153    1.404   .     A
C152   C157    1.404   1_556 A
C153   C154    1.396   .     A
C154   C155    1.399   .     A
C155   O150    1.396   1_556 S
C155   C156    1.403   1_556 A
C156   C157    1.399   .     A
C156   C155    1.403   1_554 A
C157   C152    1.404   1_554 A
C158   C144    1.334   1_556 D
C158   O150    1.401   1_556 S
C164   C165    1.403   .     A
C164   C169    1.400   1_554 A
C164   C38     1.466   1_554 S
C165   C166    1.400   .     A
C165   H187    1.084   .     S
C166   H185    1.081   .     S
C166   C167    1.415   1_554 A
C167   C168    1.400   .     A
C167   O177    1.408   .     S
C167   C166    1.415   1_556 A
C168   C169    1.394   .     A
C168   H186    1.083   .     S
C169   H189    1.084   .     S
C169   C164    1.400   1_556 A
C170   H188    1.086   .     S
C170   O177    1.403   1_554 S
C170   C184    1.334   1_554 D
H171   C179    1.083   .     S
H172   C180    1.082   .     S
H173   C182    1.083   .     S
H174   C183    1.084   .     S
H175   C184    1.089   .     S
O176   C181    1.398   1_554 S
O176   C184    1.400   1_554 S
O177   C170    1.403   1_556 S
C178   C179    1.405   .     A
C178   C183    1.406   1_556 A
C178   C57     1.474   1_556 S
C179   C180    1.399   .     A
C180   C181    1.401   .     A
C181   O176    1.398   1_556 S
C181   C182    1.400   1_556 A
C182   C183    1.399   .     A
C182   C181    1.400   1_554 A
C183   C178    1.406   1_554 A
C184   C170    1.334   1_556 D
C184   O176    1.400   1_556 S
C190   C195    1.402   .     A
C190   C191    1.403   1_554 A
C191   C192    1.399   .     A
C191   H213    1.084   .     S
C191   C190    1.403   1_556 A
C192   H211    1.080   .     S
C192   C193    1.413   1_556 A
C193   C194    1.399   .     A
C193   O203    1.408   .     S
C193   C192    1.413   1_554 A
C194   C195    1.395   .     A
C194   H212    1.083   .     S
C195   H215    1.083   .     S
C196   H214    1.086   .     S
C196   O203    1.405   1_556 S
C196   C210    1.334   1_556 D
H197   C205    1.082   .     S
H198   C206    1.083   .     S
H199   C208    1.084   .     S
H200   C209    1.081   .     S
H201   C210    1.089   .     S
O202   C207    1.404   .     S
O202   C210    1.404   1_556 S
O203   C196    1.405   1_554 S
C204   C205    1.405   .     A
C204   C209    1.408   1_554 A
C205   C206    1.401   .     A
C206   C207    1.408   1_554 A
C207   C208    1.398   .     A
C207   C206    1.408   1_556 A
C208   C209    1.398   .     A
C209   C204    1.408   1_556 A
C210   C196    1.334   1_554 D
C210   O202    1.404   1_554 S
C216   C217    1.405   .     A
C216   C221    1.405   .     A
C216   C49     1.479   1_554 S
C217   C218    1.402   .     A
C217   H239    1.083   .     S
C218   C219    1.409   .     A
C218   H237    1.083   .     S
C219   C220    1.398   .     A
C219   O229    1.405   .     S
C220   C221    1.397   .     A
C220   H238    1.083   .     S
C221   H241    1.083   .     S
C222   O229    1.404   .     S
C222   C236    1.336   .     D
C222   H240    1.088   .     S
H223   C231    1.083   .     S
H224   C232    1.081   .     S
H225   C234    1.083   .     S
H226   C235    1.083   .     S
H227   C236    1.086   .     S
O228   C233    1.409   .     S
O228   C236    1.403   .     S
C230   C231    1.406   .     A
C230   C235    1.406   .     A
C231   C232    1.406   .     A
C232   C233    1.415   .     A
C233   C234    1.396   .     A
C234   C235    1.393   .     A
C242   C243    1.399   .     A
C242   C247    1.403   1_554 A
C242   C58     1.462   1_554 S
C243   C244    1.396   .     A
C243   H265    1.083   .     S
C244   H263    1.083   .     S
C244   C245    1.408   1_554 A
C245   C246    1.400   .     A
C245   O255    1.402   .     S
C245   C244    1.408   1_556 A
C246   C247    1.399   .     A
C246   H264    1.083   .     S
C247   H267    1.083   .     S
C247   C242    1.403   1_556 A
C248   H266    1.089   .     S
C248   O255    1.402   1_554 S
C248   C262    1.332   1_554 D
H249   C257    1.084   .     S
H250   C258    1.080   .     S
H251   C260    1.083   .     S
H252   C261    1.084   .     S
H253   C262    1.084   .     S
O254   C259    1.405   1_554 S
O254   C262    1.401   1_554 S
O255   C248    1.402   1_556 S
C256   C257    1.402   .     A
C256   C261    1.399   1_556 A
C256   C17     1.464   1_556 S
C257   C258    1.403   .     A
C258   C259    1.416   .     A
C259   O254    1.405   1_556 S
C259   C260    1.397   1_556 A
C260   C261    1.390   .     A
C260   C259    1.397   1_554 A
C261   C256    1.399   1_554 A
C262   C248    1.332   1_556 D
C262   O254    1.401   1_556 S
C268   C273    1.405   .     A
C268   C269    1.404   1_554 A
C268   C9      1.474   1_554 S
C269   C270    1.398   .     A
C269   H291    1.084   .     S
C269   C268    1.404   1_556 A
C270   H289    1.083   .     S
C270   C271    1.409   1_556 A
C271   C272    1.398   .     A
C271   O281    1.404   .     S
C271   C270    1.409   1_554 A
C272   C273    1.397   .     A
C272   H290    1.083   .     S
C273   H293    1.083   .     S
C274   H292    1.089   .     S
C274   O281    1.404   1_556 S
C274   C288    1.333   1_556 D
H275   C283    1.083   .     S
H276   C284    1.083   .     S
H277   C286    1.083   .     S
H278   C287    1.083   .     S
H279   C288    1.088   .     S
O280   C285    1.402   .     S
O280   C288    1.402   1_556 S
O281   C274    1.404   1_554 S
C282   C283    1.407   .     A
C282   C287    1.405   1_554 A
C283   C284    1.402   .     A
C284   C285    1.408   1_554 A
C285   C286    1.397   .     A
C285   C284    1.408   1_556 A
C286   C287    1.396   .     A
C287   C282    1.405   1_556 A
C288   C274    1.333   1_554 D
C288   O280    1.402   1_554 S
