data_kag+N505+E15
_audit_creation_date              2025-01-21
_audit_creation_method            'Materials Studio'
_symmetry_space_group_name_H-M    'P1'
_symmetry_Int_Tables_number       1
_symmetry_cell_setting            triclinic
loop_
_symmetry_equiv_pos_as_xyz
  x,y,z
_cell_length_a                    20.7833
_cell_length_b                    16.8913
_cell_length_c                    12.1143
_cell_angle_alpha                 110.5192
_cell_angle_beta                  79.0739
_cell_angle_gamma                 96.9592
loop_
_atom_site_label
_atom_site_type_symbol
_atom_site_fract_x
_atom_site_fract_y
_atom_site_fract_z
_atom_site_U_iso_or_equiv
_atom_site_adp_type
_atom_site_occupancy
Yb0    Yb    0.59152   0.50338   0.89711   0.00000  Uiso   1.00
Yb1    Yb    0.41358   0.50814   0.21338   0.00000  Uiso   1.00
C2     C     0.30518   0.46744   0.14975   0.00000  Uiso   1.00
O3     O     0.52548   0.42912   0.78900   0.00000  Uiso   1.00
O4     O     0.56861   0.55137   0.77192   0.00000  Uiso   1.00
O5     O     0.50947   0.56307   0.02040   0.00000  Uiso   1.00
O6     O     0.42178   0.61219   1.14353   0.00000  Uiso   1.00
O7     O     0.68315   0.46821   0.79183   0.00000  Uiso   1.00
O8     O     0.67347   0.58229  -0.04742   0.00000  Uiso   1.00
O9     O     0.44473   0.56424   0.38064   0.00000  Uiso   1.00
O10    O     0.40617   0.43130   0.31800   0.00000  Uiso   1.00
C11    C     0.52799   0.48615   0.73977   0.00000  Uiso   1.00
O12    O     0.59705   0.41925  -0.00001   0.00000  Uiso   1.00
O13    O     0.51397   0.47725   1.13085   0.00000  Uiso   1.00
O14    O     0.31112   0.51789   0.25611   0.00000  Uiso   1.00
C15    C     0.46577   0.61612   0.05640   0.00000  Uiso   1.00
O16    O     0.35805   0.43741   1.07975   0.00000  Uiso   1.00
C17    C     0.71093   0.53434   0.86225   0.00000  Uiso   1.00
C18    C     0.42999   0.49319   0.39994   0.00000  Uiso   1.00
C19    C     0.54840   0.41329   0.07970   0.00000  Uiso   1.00
Yb20   Yb    0.06232   0.60439   0.87082   0.00000  Uiso   1.00
Yb21   Yb    0.95609   0.40396   0.05584   0.00000  Uiso   1.00
C22    C     0.89908   0.26513  -0.01809   0.00000  Uiso   1.00
O23    O     0.04802   0.52089   0.69991   0.00000  Uiso   1.00
O24    O     1.00642   0.64610   0.77784   0.00000  Uiso   1.00
O25    O     0.97680   0.55062   0.95744   0.00000  Uiso   1.00
O26    O     0.90909   0.43951   0.93832   0.00000  Uiso   1.00
O27    O     0.14124   0.68168   0.82375   0.00000  Uiso   1.00
O28    O     0.08407   0.71793   0.00547   0.00000  Uiso   1.00
O29    O     0.93786   0.50868   0.21030   0.00000  Uiso   1.00
O30    O    -0.01306   0.40077   0.21126   0.00000  Uiso   1.00
C31    C     1.01499   0.57685   0.68839   0.00000  Uiso   1.00
O32    O     0.12743   0.54050  -0.06950   0.00000  Uiso   1.00
O33    O     0.04729   0.46560   0.00072   0.00000  Uiso   1.00
O34    O     0.87330   0.32382   0.07578   0.00000  Uiso   1.00
C35    C     0.92682   0.50767   0.91579   0.00000  Uiso   1.00
O36    O     0.95889   0.27950   0.93625   0.00000  Uiso   1.00
C37    C     0.13153   0.73580   0.93047   0.00000  Uiso   1.00
C38    C    -0.03576   0.47468   0.26922   0.00000  Uiso   1.00
C39    C     0.10828   0.48674  -0.01566   0.00000  Uiso   1.00
Yb40   Yb    0.41608   0.98358   0.15179   0.00000  Uiso   1.00
Yb41   Yb    0.59990   0.00588   0.85993   0.00000  Uiso   1.00
C42    C     0.71401   0.06208   0.83919   0.00000  Uiso   1.00
O43    O     0.47243   0.94761   0.25359   0.00000  Uiso   1.00
O44    O     0.39403   0.03630   0.33827   0.00000  Uiso   1.00
O45    O     0.49379   0.06833   0.11873   0.00000  Uiso   1.00
O46    O     0.59493   0.08807   0.04511   0.00000  Uiso   1.00
O47    O     0.33190   0.90177   0.14990   0.00000  Uiso   1.00
O48    O     0.33736   1.01163   1.08910   0.00000  Uiso   1.00
O49    O     0.51351   0.03583   0.82322   0.00000  Uiso   1.00
O50    O     0.58410   0.95859   0.67850   0.00000  Uiso   1.00
C51    C     0.43879  -0.00519   0.35070   0.00000  Uiso   1.00
O52    O     0.45607   0.92958   0.96745   0.00000  Uiso   1.00
O53    O     0.55551   0.88712   0.88711   0.00000  Uiso   1.00
O54    O     0.66730   0.10159   0.82763   0.00000  Uiso   1.00
C55    C     0.54013   0.11882   0.09901   0.00000  Uiso   1.00
O56    O     0.69901  -0.01137  -0.14977   0.00000  Uiso   1.00
C57    C     0.30600   0.94309   0.09948   0.00000  Uiso   1.00
C58    C     0.52970   0.99658   0.71081   0.00000  Uiso   1.00
C59    C     0.49664   0.87226   0.93275   0.00000  Uiso   1.00
N60    N     0.42999   0.42417   0.64500   0.00000  Uiso   1.00
N61    N     0.40355   0.42678   0.55622   0.00000  Uiso   1.00
C62    C     0.44065   0.48118   0.50772   0.00000  Uiso   1.00
C63    C     0.49243   0.51625   0.56955   0.00000  Uiso   1.00
C64    C     0.48453   0.47678   0.65446   0.00000  Uiso   1.00
H65    H     0.53190   0.56025   0.55164   0.00000  Uiso   1.00
H66    H     0.41063   0.38805   0.69988   0.00000  Uiso   1.00
H67    H     0.36078   0.39157   0.52880   0.00000  Uiso   1.00
N68    N     0.93990   0.59431   0.45718   0.00000  Uiso   1.00
N69    N     0.95272   0.62089   0.56732   0.00000  Uiso   1.00
C70    C     0.98866   0.56420   0.57907   0.00000  Uiso   1.00
C71    C    -0.00089   0.49790   0.47142   0.00000  Uiso   1.00
C72    C    -0.03280   0.51998   0.39645   0.00000  Uiso   1.00
H73    H     0.02766   0.44336   0.44960   0.00000  Uiso   1.00
H74    H     0.91349   0.62739   0.42409   0.00000  Uiso   1.00
H75    H     0.93817   0.67793   0.63256   0.00000  Uiso   1.00
N76    N     0.43163   0.03983   0.66412   0.00000  Uiso   1.00
N77    N     0.40838   0.04094   0.57071   0.00000  Uiso   1.00
C78    C     0.44926   0.00151   0.47088   0.00000  Uiso   1.00
C79    C     0.50106   0.97324   0.50230   0.00000  Uiso   1.00
C80    C     0.48791   0.99969   0.62655   0.00000  Uiso   1.00
H81    H     0.54346   0.94181   0.44403   0.00000  Uiso   1.00
H82    H     0.40976   0.06810   0.75260   0.00000  Uiso   1.00
H83    H     0.36584   0.07000   0.57622   0.00000  Uiso   1.00
N84    N     0.14217   0.39797   0.08859   0.00000  Uiso   1.00
N85    N     0.19387   0.39406   0.13502   0.00000  Uiso   1.00
C86    C     0.24173   0.44857   0.10779   0.00000  Uiso   1.00
C87    C     0.21964   0.48939   0.04248   0.00000  Uiso   1.00
C88    C     0.15595   0.45602   0.03310   0.00000  Uiso   1.00
H89    H     0.24511   0.53959   1.01199   0.00000  Uiso   1.00
H90    H     0.09803   0.36239   0.09675   0.00000  Uiso   1.00
H91    H     0.19582   0.35583   0.18588   0.00000  Uiso   1.00
N92    N     0.83561   0.05959  -0.18256   0.00000  Uiso   1.00
N93    N     0.88438   0.11278  -0.14039   0.00000  Uiso   1.00
C94    C     0.86013   0.18862  -0.07619   0.00000  Uiso   1.00
C95    C     0.79363   0.18454   0.92011   0.00000  Uiso   1.00
C96    C     0.78016   0.10178   0.85129   0.00000  Uiso   1.00
H97    H     0.75938   0.23390   0.96433   0.00000  Uiso   1.00
H98    H     0.84014  -0.00463  -0.23137   0.00000  Uiso   1.00
H99    H     0.93279   0.09670  -0.15321   0.00000  Uiso   1.00
N100   N     0.81146   0.63025   0.88713   0.00000  Uiso   1.00
N101   N     0.87247   0.62260   0.89681   0.00000  Uiso   1.00
C102   C     0.88323   0.53972   0.86172   0.00000  Uiso   1.00
C103   C     0.82714   0.49293   0.82235   0.00000  Uiso   1.00
C104   C     0.78228   0.55250   0.84444   0.00000  Uiso   1.00
H105   H     0.81584   0.42586   0.80642   0.00000  Uiso   1.00
H106   H     0.78801   0.68729   0.92236   0.00000  Uiso   1.00
H107   H     0.90212   0.67268   0.94381   0.00000  Uiso   1.00
N108   N     0.19708   0.85743   0.88942   0.00000  Uiso   1.00
N109   N     0.24114   0.91578   0.93794   0.00000  Uiso   1.00
C110   C     0.24758   0.90871   0.04308   0.00000  Uiso   1.00
C111   C     0.20438   0.84405   0.06309   0.00000  Uiso   1.00
C112   C     0.17305   0.81389   0.96412   0.00000  Uiso   1.00
H113   H     0.20143   0.81705   0.13321   0.00000  Uiso   1.00
H114   H     0.18581   0.84537   0.80433   0.00000  Uiso   1.00
H115   H     0.27107   0.95378   0.89421   0.00000  Uiso   1.00
N116   N     0.40249   0.69324  -0.01986   0.00000  Uiso   1.00
N117   N     0.41043   0.76143  -0.05137   0.00000  Uiso   1.00
C118   C     0.47379   0.79033   0.94715   0.00000  Uiso   1.00
C119   C     0.50858   0.73638   0.97499   0.00000  Uiso   1.00
C120   C     0.46069   0.67659   0.99734   0.00000  Uiso   1.00
H121   H     0.55910   0.74459   0.98896   0.00000  Uiso   1.00
H122   H     0.35729   0.66072  -0.00675   0.00000  Uiso   1.00
H123   H     0.37252   0.78888  -0.06773   0.00000  Uiso   1.00
N124   N     0.46416   0.22904   0.13271   0.00000  Uiso   1.00
N125   N     0.46599   0.30425   0.12165   0.00000  Uiso   1.00
C126   C     0.52888   0.33234   0.10120   0.00000  Uiso   1.00
C127   C     0.56936   0.27009   0.09365   0.00000  Uiso   1.00
C128   C     0.52597   0.20589   0.11572   0.00000  Uiso   1.00
H129   H     0.62231   0.26989   0.07017   0.00000  Uiso   1.00
H130   H     0.42083   0.19181   0.14307   0.00000  Uiso   1.00
H131   H     0.42470   0.33194   0.11789   0.00000  Uiso   1.00
loop_
_geom_bond_atom_site_label_1
_geom_bond_atom_site_label_2
_geom_bond_distance
_geom_bond_site_symmetry_2
_ccdc_geom_bond_type
Yb0    O3      2.070   .     S
Yb0    O4      2.101   .     S
Yb0    O7      2.104   .     S
Yb0    O5      2.133   1_556 S
Yb0    O8      2.094   1_556 S
Yb0    O12     2.219   1_556 S
Yb1    O9      2.104   .     S
Yb1    O10     2.085   .     S
Yb1    O14     2.106   .     S
Yb1    O6      2.179   1_554 S
Yb1    O13     2.175   1_554 S
Yb1    O16     2.097   1_554 S
C2     O14     1.291   .     A
C2     C86     1.462   .     S
C2     O16     1.290   1_554 A
O3     C11     1.290   .     A
O4     C11     1.295   .     A
O5     C15     1.261   .     A
O5     Yb0     2.133   1_554 S
O6     Yb1     2.179   1_556 S
O6     C15     1.274   1_556 A
O7     C17     1.293   .     A
O8     Yb0     2.094   1_554 S
O8     C17     1.292   1_554 A
O9     C18     1.292   .     A
O10    C18     1.287   .     A
C11    C64     1.454   .     S
O12    C19     1.280   .     A
O12    Yb0     2.219   1_554 S
O13    Yb1     2.175   1_556 S
O13    C19     1.270   1_556 A
C15    O6      1.274   1_554 A
C15    C120    1.461   1_554 S
O16    Yb1     2.097   1_556 S
O16    C2      1.290   1_556 A
C17    C104    1.468   .     S
C17    O8      1.292   1_556 A
C18    C62     1.450   .     S
C19    C126    1.476   .     S
C19    O13     1.270   1_554 A
Yb20   O23     2.109   .     S
Yb20   O27     2.090   .     S
Yb20   O24     2.089   1_455 S
Yb20   O25     2.157   1_455 S
Yb20   O28     2.102   1_556 S
Yb20   O32     2.189   1_556 S
Yb21   O29     2.085   .     S
Yb21   O34     2.088   .     S
Yb21   O26     2.147   1_554 S
Yb21   O30     2.120   1_655 S
Yb21   O33     2.157   1_655 S
Yb21   O36     2.094   1_554 S
C22    O34     1.292   .     A
C22    C94     1.465   .     S
C22    O36     1.293   1_554 A
O23    C31     1.292   1_455 A
O24    C31     1.289   .     A
O24    Yb20    2.089   1_655 S
O25    C35     1.273   .     A
O25    Yb20    2.157   1_655 S
O26    C35     1.271   .     A
O26    Yb21    2.147   1_556 S
O27    C37     1.290   .     A
O28    Yb20    2.102   1_554 S
O28    C37     1.292   1_554 A
O29    C38     1.285   1_655 A
O30    C38     1.295   .     A
O30    Yb21    2.120   1_455 S
C31    C70     1.465   .     S
C31    O23     1.292   1_655 A
O32    C39     1.280   .     A
O32    Yb20    2.189   1_554 S
O33    C39     1.272   .     A
O33    Yb21    2.157   1_455 S
C35    C102    1.461   .     S
O36    Yb21    2.094   1_556 S
O36    C22     1.293   1_556 A
C37    C112    1.460   .     S
C37    O28     1.292   1_556 A
C38    C72     1.471   .     S
C38    O29     1.285   1_455 A
C39    C88     1.470   .     S
Yb40   O43     2.123   .     S
Yb40   O47     2.093   .     S
Yb40   O44     2.098   1_565 S
Yb40   O45     2.101   1_565 S
Yb40   O48     2.095   1_554 S
Yb40   O52     2.136   1_554 S
Yb41   O49     2.088   .     S
Yb41   O54     2.101   .     S
Yb41   O46     2.176   1_556 S
Yb41   O50     2.134   1_545 S
Yb41   O53     2.210   1_545 S
Yb41   O56     2.091   1_556 S
C42    O54     1.297   .     A
C42    C96     1.465   .     S
C42    O56     1.289   1_556 A
O43    C51     1.294   1_565 A
O44    C51     1.290   .     A
O44    Yb40    2.098   1_545 S
O45    C55     1.253   .     A
O45    Yb40    2.101   1_545 S
O46    C55     1.272   .     A
O46    Yb41    2.176   1_554 S
O47    C57     1.290   .     A
O48    Yb40    2.095   1_556 S
O48    C57     1.292   1_556 A
O49    C58     1.286   1_545 A
O50    C58     1.294   .     A
O50    Yb41    2.134   1_565 S
C51    C78     1.476   .     S
C51    O43     1.294   1_545 A
O52    C59     1.266   .     A
O52    Yb40    2.136   1_556 S
O53    C59     1.277   .     A
O53    Yb41    2.210   1_565 S
C55    C128    1.471   .     S
O56    Yb41    2.091   1_554 S
O56    C42     1.289   1_554 A
C57    C110    1.464   .     S
C57    O48     1.292   1_554 A
C58    C80     1.478   .     S
C58    O49     1.286   1_565 A
C59    C118    1.466   .     S
N60    N61     1.313   .     A
N60    C64     1.350   .     A
N60    H66     1.049   .     S
N61    C62     1.349   .     A
N61    H67     1.049   .     S
C62    C63     1.382   .     A
C63    C64     1.386   .     A
C63    H65     1.082   .     S
N68    N69     1.319   .     A
N68    H74     1.043   .     S
N68    C72     1.344   1_655 A
N69    C70     1.343   .     A
N69    H75     1.044   .     S
C70    C71     1.389   1_655 A
C71    C72     1.389   .     A
C71    H73     1.083   .     S
C71    C70     1.389   1_455 A
C72    N68     1.344   1_455 A
N76    N77     1.319   .     A
N76    H82     1.045   .     S
N76    C80     1.345   1_545 A
N77    C78     1.346   .     A
N77    H83     1.042   .     S
C78    C79     1.393   1_545 A
C79    C80     1.394   .     A
C79    H81     1.082   .     S
C79    C78     1.393   1_565 A
C80    N76     1.345   1_565 A
N84    N85     1.322   .     A
N84    C88     1.348   .     A
N84    H90     1.042   .     S
N85    C86     1.346   .     A
N85    H91     1.045   .     S
C86    C87     1.382   .     A
C87    C88     1.383   .     A
C87    H89     1.083   1_554 S
H89    C87     1.083   1_556 S
N92    N93     1.323   .     A
N92    H98     1.044   .     S
N92    C96     1.349   1_554 A
N93    C94     1.345   .     A
N93    H99     1.043   .     S
C94    C95     1.384   1_554 A
C95    C96     1.380   .     A
C95    H97     1.084   .     S
C95    C94     1.384   1_556 A
C96    N92     1.349   1_556 A
N100   N101    1.321   .     A
N100   C104    1.345   .     A
N100   H106    1.046   .     S
N101   C102    1.347   .     A
N101   H107    1.043   .     S
C102   C103    1.391   .     A
C103   C104    1.377   .     A
C103   H105    1.084   .     S
N108   N109    1.317   .     A
N108   C112    1.347   .     A
N108   H114    1.045   .     S
N109   H115    1.047   .     S
N109   C110    1.353   1_556 A
C110   C111    1.387   .     A
C110   N109    1.353   1_554 A
C111   H113    1.086   .     S
C111   C112    1.381   1_554 A
C112   C111    1.381   1_556 A
N116   N117    1.318   .     A
N116   H122    1.044   .     S
N116   C120    1.343   1_554 A
N117   H123    1.043   .     S
N117   C118    1.347   1_554 A
C118   C119    1.391   .     A
C118   N117    1.347   1_556 A
C119   C120    1.389   .     A
C119   H121    1.080   .     S
C120   N116    1.343   1_556 A
C120   C15     1.461   1_556 S
N124   N125    1.319   .     A
N124   C128    1.346   .     A
N124   H130    1.047   .     S
N125   C126    1.343   .     A
N125   H131    1.041   .     S
C126   C127    1.393   .     A
C127   C128    1.391   .     A
C127   H129    1.083   .     S
