data_kag+N205+E28
_audit_creation_date              2025-01-21
_audit_creation_method            'Materials Studio'
_symmetry_space_group_name_H-M    'P1'
_symmetry_Int_Tables_number       1
_symmetry_cell_setting            triclinic
loop_
_symmetry_equiv_pos_as_xyz
  x,y,z
_cell_length_a                    43.8197
_cell_length_b                    43.6302
_cell_length_c                    18.8811
_cell_angle_alpha                 93.8931
_cell_angle_beta                  96.0040
_cell_angle_gamma                 120.2303
loop_
_atom_site_label
_atom_site_type_symbol
_atom_site_fract_x
_atom_site_fract_y
_atom_site_fract_z
_atom_site_U_iso_or_equiv
_atom_site_adp_type
_atom_site_occupancy
Y0     Y     0.54769   0.49828  -0.00417   0.00000  Uiso   1.00
Y1     Y     0.46138   0.50640   0.99108   0.00000  Uiso   1.00
C2     C     0.49966   0.57893   0.01339   0.00000  Uiso   1.00
C3     C     0.50880   0.50351   0.11568   0.00000  Uiso   1.00
C4     C     0.61723   0.52020   0.99292   0.00000  Uiso   1.00
C5     C     0.50902   0.42617   0.99095   0.00000  Uiso   1.00
C6     C     0.50120   0.50305   0.86956   0.00000  Uiso   1.00
C7     C     0.39110   0.48312  -0.01287   0.00000  Uiso   1.00
O8     O     0.48941   0.56046   0.95233   0.00000  Uiso   1.00
O9     O     0.49143   0.55988   0.06325   0.00000  Uiso   1.00
O10    O     0.53803   0.52255   0.09271   0.00000  Uiso   1.00
O11    O     0.48074   0.48204   0.07123   0.00000  Uiso   1.00
O12    O     0.59365   0.50826   0.93776   0.00000  Uiso   1.00
O13    O     0.60508   0.52209   0.04960   0.00000  Uiso   1.00
O14    O     0.52563   0.44783   0.04777   0.00000  Uiso   1.00
O15    O     0.51113   0.44187   0.93646   0.00000  Uiso   1.00
O16    O     0.47212   0.48371   0.89298   0.00000  Uiso   1.00
O17    O     0.52993   0.52308   0.91349   0.00000  Uiso   1.00
O18    O     0.41173   0.48686   0.04294   0.00000  Uiso   1.00
O19    O     0.40643   0.48965   0.93257   0.00000  Uiso   1.00
Y20    Y     0.05215   0.55003   0.00909   0.00000  Uiso   1.00
Y21    Y     0.95940   0.45774   0.99966   0.00000  Uiso   1.00
C22    C     0.92159   0.49130   0.99523   0.00000  Uiso   1.00
C23    C     0.01325   0.50901   0.12869   0.00000  Uiso   1.00
C24    C     0.09385   0.62043   0.99857   0.00000  Uiso   1.00
C25    C     0.09121   0.51774   0.00967   0.00000  Uiso   1.00
C26    C    -0.00133   0.49789   0.88078   0.00000  Uiso   1.00
C27    C     0.91569   0.38729   0.00652   0.00000  Uiso   1.00
O28    O     0.92408   0.47485   0.94095   0.00000  Uiso   1.00
O29    O     0.93975   0.49152   0.05174   0.00000  Uiso   1.00
O30    O     0.02268   0.53820   0.10329   0.00000  Uiso   1.00
O31    O     1.00684   0.48143   0.08766   0.00000  Uiso   1.00
O32    O     0.07820   0.59614   0.94533   0.00000  Uiso   1.00
O33    O     0.08649   0.60846   0.05721   0.00000  Uiso   1.00
O34    O     0.09010   0.53495   0.06456   0.00000  Uiso   1.00
O35    O     0.07126   0.51630   0.95498   0.00000  Uiso   1.00
O36    O     0.98951   0.46890   0.90672   0.00000  Uiso   1.00
O37    O     0.00454   0.52540   0.92131   0.00000  Uiso   1.00
O38    O     0.93144   0.41090   0.06092   0.00000  Uiso   1.00
O39    O     0.92400   0.39993   0.94884   0.00000  Uiso   1.00
Y40    Y     0.50831   0.05051  -0.00208   0.00000  Uiso   1.00
Y41    Y     0.50035   0.95482   1.00768   0.00000  Uiso   1.00
C42    C     0.42805   0.91910   0.99633   0.00000  Uiso   1.00
C43    C     0.50885   0.01019   0.12612   0.00000  Uiso   1.00
C44    C     0.48256   0.09528   0.98939   0.00000  Uiso   1.00
C45    C     0.58041   0.08669   0.00511   0.00000  Uiso   1.00
C46    C     0.50033  -0.00487   0.87911   0.00000  Uiso   1.00
C47    C     0.52544   0.90992   0.02389   0.00000  Uiso   1.00
O48    O     0.44437   0.92194   0.94386   0.00000  Uiso   1.00
O49    O     0.44915   0.93583   0.05420   0.00000  Uiso   1.00
O50    O     0.48958   0.01967   0.09019   0.00000  Uiso   1.00
O51    O     0.52853   1.00191   0.09491   0.00000  Uiso   1.00
O52    O     0.48547   0.07898   0.93525   0.00000  Uiso   1.00
O53    O     0.49193   0.08749   0.04745   0.00000  Uiso   1.00
O54    O     0.56493   0.08140   0.05939   0.00000  Uiso   1.00
O55    O     0.55859   0.07211   0.94738   0.00000  Uiso   1.00
O56    O     0.51924   0.98515   0.91479   0.00000  Uiso   1.00
O57    O     0.48066   0.00345   0.91035   0.00000  Uiso   1.00
O58    O     0.52012   0.92552   0.07553   0.00000  Uiso   1.00
O59    O     0.51889   0.91853   0.96440   0.00000  Uiso   1.00
C60    C     0.50532   0.50713   0.34248   0.00000  Uiso   1.00
C61    C     0.53741   0.52937   0.31713   0.00000  Uiso   1.00
C62    C     0.53847   0.52860   0.24338   0.00000  Uiso   1.00
C63    C     0.50747   0.50557   0.19351   0.00000  Uiso   1.00
C64    C     0.47529   0.48372   0.21872   0.00000  Uiso   1.00
C65    C     0.47422   0.48448   0.29240   0.00000  Uiso   1.00
C66    C     0.50444   0.50698   0.42069   0.00000  Uiso   1.00
N67    N     0.47362   0.48504   0.44520   0.00000  Uiso   1.00
N68    N     0.47296   0.48442   0.51556   0.00000  Uiso   1.00
C69    C     0.50308   0.50568   0.56407   0.00000  Uiso   1.00
N70    N     0.53386   0.52769   0.53956   0.00000  Uiso   1.00
N71    N     0.53453   0.52831   0.46921   0.00000  Uiso   1.00
C72    C     0.50250   0.50479   0.64228   0.00000  Uiso   1.00
C73    C     0.53389   0.52668   0.69213   0.00000  Uiso   1.00
C74    C     0.53347   0.52586   0.76581   0.00000  Uiso   1.00
C75    C     0.50162   0.50318   0.79139   0.00000  Uiso   1.00
C76    C     0.47025   0.48117   0.74167   0.00000  Uiso   1.00
C77    C     0.47066   0.48197   0.66788   0.00000  Uiso   1.00
H78    H     0.56186   0.54718   0.35415   0.00000  Uiso   1.00
H79    H     0.56366   0.54574   0.22547   0.00000  Uiso   1.00
H80    H     0.45095   0.46567   0.18152   0.00000  Uiso   1.00
H81    H     0.44904   0.46703   0.30996   0.00000  Uiso   1.00
H82    H     0.55889   0.54456   0.67437   0.00000  Uiso   1.00
H83    H     0.55814   0.54317   0.80273   0.00000  Uiso   1.00
H84    H     0.44533   0.46337   0.75977   0.00000  Uiso   1.00
H85    H     0.44599   0.46473   0.63101   0.00000  Uiso   1.00
C86    C     0.00597   0.50184   0.65537   0.00000  Uiso   1.00
C87    C     0.99515   0.46971   0.68432   0.00000  Uiso   1.00
C88    C     0.99330   0.46858   0.75764   0.00000  Uiso   1.00
C89    C     0.00224   0.49954   0.80380   0.00000  Uiso   1.00
C90    C     0.01380   0.53185   0.77530   0.00000  Uiso   1.00
C91    C     0.01570   0.53301   0.70195   0.00000  Uiso   1.00
C92    C     0.00648   0.50264   0.57695   0.00000  Uiso   1.00
N93    N     0.01651   0.53350   0.54860   0.00000  Uiso   1.00
N94    N     0.01646   0.53409   0.47810   0.00000  Uiso   1.00
C95    C     0.00632   0.50384   0.43287   0.00000  Uiso   1.00
N96    N     0.99625   0.47296   0.46120   0.00000  Uiso   1.00
N97    N     0.99630   0.47237   0.53171   0.00000  Uiso   1.00
C98    C     0.00679   0.50471   0.35444   0.00000  Uiso   1.00
C99    C     0.99691   0.47358   0.30755   0.00000  Uiso   1.00
C100   C     0.99842   0.47481   0.23405   0.00000  Uiso   1.00
C101   C     0.00998   0.50721   0.20582   0.00000  Uiso   1.00
C102   C     0.01921   0.53814   0.25239   0.00000  Uiso   1.00
C103   C     0.01769   0.53692   0.32578   0.00000  Uiso   1.00
H104   H     0.98769   0.44525   0.65024   0.00000  Uiso   1.00
H105   H     0.98433   0.44327   0.77795   0.00000  Uiso   1.00
H106   H     0.02106   0.55623   0.80954   0.00000  Uiso   1.00
H107   H     0.02441   0.55830   0.68172   0.00000  Uiso   1.00
H108   H     0.98832   0.44828   0.32763   0.00000  Uiso   1.00
H109   H     0.99086   0.45042   0.19948   0.00000  Uiso   1.00
H110   H     0.02812   0.56349   0.23233   0.00000  Uiso   1.00
H111   H     0.02543   0.56140   0.36014   0.00000  Uiso   1.00
C112   C     0.50597   0.00543   0.35268   0.00000  Uiso   1.00
C113   C     0.48635   0.01763   0.31248   0.00000  Uiso   1.00
C114   C     0.48713   0.01888   0.23890   0.00000  Uiso   1.00
C115   C     0.50765   0.00812   0.20379   0.00000  Uiso   1.00
C116   C     0.52711   0.99574   0.24376   0.00000  Uiso   1.00
C117   C     0.52635   0.99450   0.31740   0.00000  Uiso   1.00
C118   C     0.50506   0.00395   0.43081   0.00000  Uiso   1.00
N119   N     0.52312   0.99114   0.46918   0.00000  Uiso   1.00
N120   N     0.52229   0.98972   0.53931   0.00000  Uiso   1.00
C121   C     0.50335   0.00103   0.57399   0.00000  Uiso   1.00
N122   N     0.48525   0.01381   0.53562   0.00000  Uiso   1.00
N123   N     0.48608   0.01523   0.46546   0.00000  Uiso   1.00
C124   C     0.50265  -0.00035   0.65222   0.00000  Uiso   1.00
C125   C     0.48248   0.01074   0.68785   0.00000  Uiso   1.00
C126   C     0.48200   0.00964   0.76161   0.00000  Uiso   1.00
C127   C     0.50150  -0.00278   0.80136   0.00000  Uiso   1.00
C128   C     0.52184   0.98635   0.76588   0.00000  Uiso   1.00
C129   C     0.52235   0.98746   0.69218   0.00000  Uiso   1.00
H130   H     0.47038   0.02630   0.33773   0.00000  Uiso   1.00
H131   H     0.47177   0.02847   0.20954   0.00000  Uiso   1.00
H132   H     0.54300   0.98704   0.21823   0.00000  Uiso   1.00
H133   H     0.54186   0.98505   0.34669   0.00000  Uiso   1.00
H134   H     0.46691   0.02018   0.65876   0.00000  Uiso   1.00
H135   H     0.46623   0.01840   0.78740   0.00000  Uiso   1.00
H136   H     0.53723   0.97671   0.79497   0.00000  Uiso   1.00
H137   H     0.53816   0.97868   0.66661   0.00000  Uiso   1.00
C138   C     0.28586   0.46629  -0.01148   0.00000  Uiso   1.00
C139   C     0.29958   0.46866  -0.07630   0.00000  Uiso   1.00
C140   C     0.33323   0.47265  -0.07717   0.00000  Uiso   1.00
C141   C     0.35382   0.47421  -0.01341   0.00000  Uiso   1.00
C142   C     0.33960   0.47032   0.05086   0.00000  Uiso   1.00
C143   C     0.30596   0.46637   0.05182   0.00000  Uiso   1.00
C144   C     0.25225   0.46647  -0.00889   0.00000  Uiso   1.00
N145   N     0.23337   0.46771  -0.06941   0.00000  Uiso   1.00
N146   N     0.20494   0.47099  -0.06608   0.00000  Uiso   1.00
C147   C     0.19417   0.47329  -0.00199   0.00000  Uiso   1.00
N148   N     0.21270   0.47151   0.05835   0.00000  Uiso   1.00
N149   N     0.24104   0.46810   0.05496   0.00000  Uiso   1.00
C150   C     0.16495   0.48067   0.00277   0.00000  Uiso   1.00
C151   C     0.16317   0.49695   0.06784   0.00000  Uiso   1.00
C152   C     0.13825   0.50782   0.07076   0.00000  Uiso   1.00
C153   C     0.11451   0.50246   0.00874   0.00000  Uiso   1.00
C154   C     0.11510   0.48469  -0.05550   0.00000  Uiso   1.00
C155   C     0.14017   0.47399  -0.05854   0.00000  Uiso   1.00
H156   H     0.28499   0.46885  -0.12604   0.00000  Uiso   1.00
H157   H     0.34367   0.47575  -0.12736   0.00000  Uiso   1.00
H158   H     0.35505   0.47175   0.10097   0.00000  Uiso   1.00
H159   H     0.29628   0.46457   0.10272   0.00000  Uiso   1.00
H160   H     0.18212   0.50280   0.11582   0.00000  Uiso   1.00
H161   H     0.13845   0.52154   0.12101   0.00000  Uiso   1.00
H162   H     0.09691   0.48004  -0.10398   0.00000  Uiso   1.00
H163   H     0.14063   0.46118  -0.10927   0.00000  Uiso   1.00
C164   C     0.82999   0.28056   0.01341   0.00000  Uiso   1.00
C165   C     0.84238   0.29081   0.94822   0.00000  Uiso   1.00
C166   C     0.87151   0.32502   0.94642   0.00000  Uiso   1.00
C167   C     0.88881   0.34958   0.00972   0.00000  Uiso   1.00
C168   C     0.87782   0.33873   0.07541   0.00000  Uiso   1.00
C169   C     0.84867   0.30459   0.07725   0.00000  Uiso   1.00
C170   C     0.79619   0.24640   0.01418   0.00000  Uiso   1.00
N171   N     0.78279   0.23787   0.07636   0.00000  Uiso   1.00
N172   N     0.75069   0.20915   0.07619   0.00000  Uiso   1.00
C173   C     0.73053   0.18768   0.01378   0.00000  Uiso   1.00
N174   N     0.74425   0.19577   0.95177   0.00000  Uiso   1.00
N175   N     0.77637   0.22449   0.95195   0.00000  Uiso   1.00
C176   C     0.69316   0.15827   0.01250   0.00000  Uiso   1.00
C177   C     0.67084   0.13913   0.94672   0.00000  Uiso   1.00
C178   C     0.63441   0.11473   0.94469   0.00000  Uiso   1.00
C179   C     0.61955   0.10890   0.00832   0.00000  Uiso   1.00
C180   C     0.64206   0.12666   0.07438   0.00000  Uiso   1.00
C181   C     0.67854   0.15100   0.07650   0.00000  Uiso   1.00
H182   H     0.82882   0.27292   0.89809   0.00000  Uiso   1.00
H183   H     0.87965   0.33269   0.89513   0.00000  Uiso   1.00
H184   H     0.89081   0.35714   0.12506   0.00000  Uiso   1.00
H185   H     0.83998   0.29757   0.12844   0.00000  Uiso   1.00
H186   H     0.68118   0.14396   0.89641   0.00000  Uiso   1.00
H187   H     0.61764   0.10135   0.89302   0.00000  Uiso   1.00
H188   H     0.63127   0.12265   0.12425   0.00000  Uiso   1.00
H189   H     0.69500   0.16503   0.12816   0.00000  Uiso   1.00
C190   C     0.84670   0.52733   0.98986   0.00000  Uiso   1.00
C191   C     0.85246   0.51392   0.92596   0.00000  Uiso   1.00
C192   C     0.87803   0.50375   0.92748   0.00000  Uiso   1.00
C193   C     0.89840   0.50676   0.99289   0.00000  Uiso   1.00
C194   C     0.89411   0.52188   1.05631   0.00000  Uiso   1.00
C195   C     0.86855   0.53218   1.05484   0.00000  Uiso   1.00
C196   C     0.81624   0.53337   0.98908   0.00000  Uiso   1.00
N197   N     0.80919   0.54475   1.05070   0.00000  Uiso   1.00
N198   N     0.77997   0.54702   1.05058   0.00000  Uiso   1.00
C199   C     0.75655   0.53800   0.98881   0.00000  Uiso   1.00
N200   N     0.76390   0.52713   0.92713   0.00000  Uiso   1.00
N201   N     0.79307   0.52486   0.92726   0.00000  Uiso   1.00
C202   C     0.72249   0.53753   0.98930   0.00000  Uiso   1.00
C203   C     0.69838   0.52775   0.92500   0.00000  Uiso   1.00
C204   C     0.66473   0.52369   0.92601   0.00000  Uiso   1.00
C205   C     0.65435   0.52909   0.99131   0.00000  Uiso   1.00
C206   C     0.67888   0.54040   1.05526   0.00000  Uiso   1.00
C207   C     0.71268   0.54467   1.05427   0.00000  Uiso   1.00
H208   H     0.83632   0.51001   0.87489   0.00000  Uiso   1.00
H209   H     0.88091   0.49230   0.87769   0.00000  Uiso   1.00
H210   H     0.90958   0.52451   1.10738   0.00000  Uiso   1.00
H211   H     0.86504   0.54266   1.10499   0.00000  Uiso   1.00
H212   H     0.70506   0.52228   0.87389   0.00000  Uiso   1.00
H213   H     0.64637   0.51516   0.87586   0.00000  Uiso   1.00
H214   H     0.67154   0.54486   1.10630   0.00000  Uiso   1.00
H215   H     0.73068   0.55254   1.10469   0.00000  Uiso   1.00
C216   C     0.31484   0.84848   0.98461   0.00000  Uiso   1.00
C217   C     0.33631   0.86904   0.05022   0.00000  Uiso   1.00
C218   C     0.37290   0.89317   0.05348   0.00000  Uiso   1.00
C219   C     0.38879   0.89722   0.99128   0.00000  Uiso   1.00
C220   C     0.36713   0.87808   0.92512   0.00000  Uiso   1.00
C221   C     0.33048   0.85409   0.92171   0.00000  Uiso   1.00
C222   C     0.27730   0.81937   0.98298   0.00000  Uiso   1.00
N223   N     0.25789   0.79651   0.92155   0.00000  Uiso   1.00
N224   N     0.22565   0.76806   0.92180   0.00000  Uiso   1.00
C225   C     0.21137   0.76120   0.98343   0.00000  Uiso   1.00
N226   N     0.23044   0.78448   0.04452   0.00000  Uiso   1.00
N227   N     0.26269   0.81294   0.04428   0.00000  Uiso   1.00
C228   C     0.17760   0.72721   0.98545   0.00000  Uiso   1.00
C229   C     0.16475   0.71825   0.05080   0.00000  Uiso   1.00
C230   C     0.13614   0.68398   0.05452   0.00000  Uiso   1.00
C231   C     0.11977   0.65814   0.99294   0.00000  Uiso   1.00
C232   C     0.13095   0.66779   0.92678   0.00000  Uiso   1.00
C233   C     0.15963   0.70193   0.92308   0.00000  Uiso   1.00
H234   H     0.32515   0.86557   0.09964   0.00000  Uiso   1.00
H235   H     0.38897   0.90773   0.10517   0.00000  Uiso   1.00
H236   H     0.37873   0.88083   0.87632   0.00000  Uiso   1.00
H237   H     0.31468   0.83906   0.87011   0.00000  Uiso   1.00
H238   H     0.17767   0.73718   0.09975   0.00000  Uiso   1.00
H239   H     0.12773   0.67727   0.10604   0.00000  Uiso   1.00
H240   H     0.11866   0.64840   0.87839   0.00000  Uiso   1.00
H241   H     0.16861   0.70796   0.87178   0.00000  Uiso   1.00
C242   C     0.54909   0.82621   0.04102   0.00000  Uiso   1.00
C243   C     0.54521   0.84315   0.10266   0.00000  Uiso   1.00
C244   C     0.53910   0.87154   0.09788   0.00000  Uiso   1.00
C245   C     0.53649   0.88331   0.03134   0.00000  Uiso   1.00
C246   C     0.54185   0.86744   0.97045   0.00000  Uiso   1.00
C247   C     0.54829   0.83934   0.97527   0.00000  Uiso   1.00
C248   C     0.55084   0.79325   0.04364   0.00000  Uiso   1.00
N249   N     0.55653   0.77809   0.98512   0.00000  Uiso   1.00
N250   N     0.55440   0.74654   0.98460   0.00000  Uiso   1.00
C251   C     0.54647   0.72874   0.04255   0.00000  Uiso   1.00
N252   N     0.54156   0.74427   0.10170   0.00000  Uiso   1.00
N253   N     0.54372   0.77585   0.10224   0.00000  Uiso   1.00
C254   C     0.53986   0.69178   0.03870   0.00000  Uiso   1.00
C255   C     0.53013   0.67274   0.09768   0.00000  Uiso   1.00
C256   C     0.51907   0.63636   0.09073   0.00000  Uiso   1.00
C257   C     0.51718   0.61829   0.02452   0.00000  Uiso   1.00
C258   C     0.52877   0.63764   0.96681   0.00000  Uiso   1.00
C259   C     0.54016   0.67407   0.97387   0.00000  Uiso   1.00
H260   H     0.54587   0.83382   0.15420   0.00000  Uiso   1.00
H261   H     0.53515   0.88341   0.14571   0.00000  Uiso   1.00
H262   H     0.53992   0.87598   0.91847   0.00000  Uiso   1.00
H263   H     0.55117   0.82697   0.92671   0.00000  Uiso   1.00
H264   H     0.52965   0.68553   0.14843   0.00000  Uiso   1.00
H265   H     0.51032   0.62200   0.13611   0.00000  Uiso   1.00
H266   H     0.52787   0.62433   0.91539   0.00000  Uiso   1.00
H267   H     0.54769   0.68790   0.92746   0.00000  Uiso   1.00
C268   C     0.46741   0.31341   0.98535   0.00000  Uiso   1.00
C269   C     0.47832   0.33588   0.05133   0.00000  Uiso   1.00
C270   C     0.49021   0.37227   0.05296   0.00000  Uiso   1.00
C271   C     0.49117   0.38695   0.98877   0.00000  Uiso   1.00
C272   C     0.47826   0.36424   0.92289   0.00000  Uiso   1.00
C273   C     0.46650   0.32779   0.92117   0.00000  Uiso   1.00
C274   C     0.46036   0.27632   0.98361   0.00000  Uiso   1.00
N275   N     0.45670   0.25682   0.92069   0.00000  Uiso   1.00
N276   N     0.45449   0.22519   0.92002   0.00000  Uiso   1.00
C277   C     0.45578   0.21166   0.98225   0.00000  Uiso   1.00
N278   N     0.45858   0.23077   0.04497   0.00000  Uiso   1.00
N279   N     0.46085   0.26241   0.04565   0.00000  Uiso   1.00
C280   C     0.45761   0.17859   0.98261   0.00000  Uiso   1.00
C281   C     0.46205   0.16658   0.04803   0.00000  Uiso   1.00
C282   C     0.46873   0.13851   0.04968   0.00000  Uiso   1.00
C283   C     0.47095   0.12168   0.98600   0.00000  Uiso   1.00
C284   C     0.46454   0.13221   0.92013   0.00000  Uiso   1.00
C285   C     0.45800   0.16046   0.91843   0.00000  Uiso   1.00
H286   H     0.47933   0.32580   0.10185   0.00000  Uiso   1.00
H287   H     0.50005   0.38923   0.10452   0.00000  Uiso   1.00
H288   H     0.47876   0.37493   0.87262   0.00000  Uiso   1.00
H289   H     0.45802   0.31120   0.86945   0.00000  Uiso   1.00
H290   H     0.46161   0.17965   0.09845   0.00000  Uiso   1.00
H291   H     0.47331   0.13073   0.10118   0.00000  Uiso   1.00
H292   H     0.46581   0.11946   0.87017   0.00000  Uiso   1.00
H293   H     0.45448   0.16884   0.86703   0.00000  Uiso   1.00
loop_
_geom_bond_atom_site_label_1
_geom_bond_atom_site_label_2
_geom_bond_distance
_geom_bond_site_symmetry_2
_ccdc_geom_bond_type
Y0     O10     2.235   .     S
Y0     O13     2.264   .     S
Y0     O14     2.256   .     S
Y0     O12     2.256   1_554 S
Y0     O15     2.271   1_554 S
Y0     O17     2.240   1_554 S
Y1     O8      2.261   .     S
Y1     O16     2.244   .     S
Y1     O19     2.261   .     S
Y1     O9      2.266   1_556 S
Y1     O11     2.236   1_556 S
Y1     O18     2.261   1_556 S
C2     O9      1.258   .     A
C2     C257    1.474   .     S
C2     O8      1.258   1_554 A
C3     O10     1.270   .     A
C3     O11     1.269   .     A
C3     C63     1.475   .     S
C4     O12     1.258   .     A
C4     C205    1.475   .     S
C4     O13     1.260   1_556 A
C5     O15     1.260   .     A
C5     C271    1.476   .     S
C5     O14     1.257   1_556 A
C6     O16     1.272   .     A
C6     O17     1.270   .     A
C6     C75     1.478   .     S
C7     O18     1.258   .     A
C7     C141    1.475   .     S
C7     O19     1.259   1_554 A
O8     C2      1.258   1_556 A
O9     Y1      2.266   1_554 S
O11    Y1      2.236   1_554 S
O12    Y0      2.256   1_556 S
O13    C4      1.260   1_554 A
O14    C5      1.257   1_554 A
O15    Y0      2.271   1_556 S
O17    Y0      2.240   1_556 S
O18    Y1      2.261   1_554 S
O19    C7      1.259   1_556 A
Y20    O30     2.243   .     S
Y20    O33     2.264   .     S
Y20    O34     2.264   .     S
Y20    O32     2.259   1_554 S
Y20    O35     2.264   1_554 S
Y20    O37     2.243   1_554 S
Y21    O28     2.258   .     S
Y21    O36     2.238   .     S
Y21    O39     2.260   .     S
Y21    O29     2.267   1_556 S
Y21    O31     2.243   1_556 S
Y21    O38     2.261   1_556 S
C22    O28     1.257   .     A
C22    C193    1.474   .     S
C22    O29     1.259   1_556 A
C23    O30     1.272   .     A
C23    C101    1.482   .     S
C23    O31     1.271   1_455 A
C24    O32     1.258   .     A
C24    C231    1.475   .     S
C24    O33     1.259   1_556 A
C25    O34     1.258   .     A
C25    C153    1.475   .     S
C25    O35     1.258   1_554 A
C26    O37     1.271   .     A
C26    C89     1.481   .     S
C26    O36     1.271   1_455 A
C27    O38     1.259   .     A
C27    C167    1.475   .     S
C27    O39     1.259   1_554 A
O29    Y21     2.267   1_554 S
O29    C22     1.259   1_554 A
O31    Y21     2.243   1_554 S
O31    C23     1.271   1_655 A
O32    Y20     2.259   1_556 S
O33    C24     1.259   1_554 A
O35    Y20     2.264   1_556 S
O35    C25     1.258   1_556 A
O36    C26     1.271   1_655 A
O37    Y20     2.243   1_556 S
O38    Y21     2.261   1_554 S
O39    C27     1.259   1_556 A
Y40    O50     2.241   .     S
Y40    O53     2.257   .     S
Y40    O54     2.267   .     S
Y40    O52     2.269   1_554 S
Y40    O55     2.264   1_554 S
Y40    O57     2.243   1_554 S
Y41    O48     2.265   .     S
Y41    O56     2.242   .     S
Y41    O59     2.257   .     S
Y41    O49     2.265   1_556 S
Y41    O51     2.240   1_556 S
Y41    O58     2.265   1_556 S
C42    O48     1.258   .     A
C42    C219    1.476   .     S
C42    O49     1.258   1_556 A
C43    O50     1.270   .     A
C43    C115    1.480   .     S
C43    O51     1.270   1_545 A
C44    O52     1.260   .     A
C44    C283    1.477   .     S
C44    O53     1.258   1_556 A
C45    O54     1.259   .     A
C45    C179    1.477   .     S
C45    O55     1.258   1_554 A
C46    O57     1.271   .     A
C46    C127    1.482   .     S
C46    O56     1.271   1_545 A
C47    O58     1.259   .     A
C47    C245    1.475   .     S
C47    O59     1.258   1_554 A
O49    Y41     2.265   1_554 S
O49    C42     1.258   1_554 A
O51    Y41     2.240   1_554 S
O51    C43     1.270   1_565 A
O52    Y40     2.269   1_556 S
O53    C44     1.258   1_554 A
O55    Y40     2.264   1_556 S
O55    C45     1.258   1_556 A
O56    C46     1.271   1_565 A
O57    Y40     2.243   1_556 S
O58    Y41     2.265   1_554 S
O59    C47     1.258   1_556 A
C60    C61     1.406   .     A
C60    C65     1.405   .     A
C60    C66     1.482   .     S
C61    C62     1.397   .     A
C61    H78     1.082   .     S
C62    C63     1.404   .     A
C62    H79     1.083   .     S
C63    C64     1.405   .     A
C64    C65     1.395   .     A
C64    H80     1.083   .     S
C65    H81     1.083   .     S
C66    N67     1.358   .     A
C66    N71     1.356   .     A
N67    N68     1.334   .     A
N68    C69     1.357   .     A
C69    N70     1.358   .     A
C69    C72     1.482   .     S
N70    N71     1.333   .     A
C72    C73     1.405   .     A
C72    C77     1.407   .     A
C73    C74     1.396   .     A
C73    H82     1.083   .     S
C74    C75     1.406   .     A
C74    H83     1.083   .     S
C75    C76     1.404   .     A
C76    C77     1.398   .     A
C76    H84     1.083   .     S
C77    H85     1.083   .     S
C86    C91     1.407   .     A
C86    C92     1.486   .     S
C86    C87     1.406   1_455 A
C87    C88     1.398   .     A
C87    H104    1.083   .     S
C87    C86     1.406   1_655 A
C88    H105    1.083   .     S
C88    C89     1.405   1_655 A
C89    C90     1.405   .     A
C89    C88     1.405   1_455 A
C90    C91     1.399   .     A
C90    H106    1.083   .     S
C91    H107    1.083   .     S
C92    N93     1.358   .     A
C92    N97     1.359   1_455 A
N93    N94     1.333   .     A
N94    C95     1.359   .     A
C95    C98     1.486   .     S
C95    N96     1.358   1_455 A
N96    N97     1.333   .     A
N96    C95     1.358   1_655 A
N97    C92     1.359   1_655 A
C98    C103    1.406   .     A
C98    C99     1.407   1_455 A
C99    C100    1.400   .     A
C99    H108    1.083   .     S
C99    C98     1.407   1_655 A
C100   H109    1.083   .     S
C100   C101    1.406   1_655 A
C101   C102    1.405   .     A
C101   C100    1.406   1_455 A
C102   C103    1.398   .     A
C102   H110    1.083   .     S
C103   H111    1.082   .     S
C112   C113    1.406   .     A
C112   C118    1.485   .     S
C112   C117    1.407   1_545 A
C113   C114    1.397   .     A
C113   H130    1.083   .     S
C114   C115    1.405   .     A
C114   H131    1.083   .     S
C115   C116    1.405   1_545 A
C116   C117    1.398   .     A
C116   H132    1.083   .     S
C116   C115    1.405   1_565 A
C117   H133    1.083   .     S
C117   C112    1.407   1_565 A
C118   N123    1.358   .     A
C118   N119    1.358   1_545 A
N119   N120    1.333   .     A
N119   C118    1.358   1_565 A
N120   C121    1.358   1_565 A
C121   N122    1.358   .     A
C121   C124    1.485   .     S
C121   N120    1.358   1_545 A
N122   N123    1.334   .     A
C124   C125    1.407   .     A
C124   C129    1.406   1_545 A
C125   C126    1.399   .     A
C125   H134    1.083   .     S
C126   C127    1.405   .     A
C126   H135    1.083   .     S
C127   C128    1.406   1_545 A
C128   C129    1.398   .     A
C128   H136    1.083   .     S
C128   C127    1.406   1_565 A
C129   H137    1.083   .     S
C129   C124    1.406   1_565 A
C138   C139    1.407   .     A
C138   C143    1.407   .     A
C138   C144    1.483   .     S
C139   C140    1.397   .     A
C139   H156    1.082   .     S
C140   C141    1.403   .     A
C140   H157    1.082   .     S
C141   C142    1.403   .     A
C142   C143    1.398   .     A
C142   H158    1.083   .     S
C143   H159    1.082   .     S
C144   N145    1.360   .     A
C144   N149    1.359   .     A
N145   N146    1.331   .     A
N146   C147    1.359   .     A
C147   N148    1.358   .     A
C147   C150    1.479   .     S
N148   N149    1.330   .     A
C150   C151    1.406   .     A
C150   C155    1.406   .     A
C151   C152    1.397   .     A
C151   H160    1.083   .     S
C152   C153    1.404   .     A
C152   H161    1.084   .     S
C153   C154    1.404   .     A
C154   C155    1.398   .     A
C154   H162    1.083   .     S
C155   H163    1.083   .     S
C164   C169    1.407   .     A
C164   C170    1.483   .     S
C164   C165    1.407   1_554 A
C165   C166    1.398   .     A
C165   H182    1.083   .     S
C165   C164    1.407   1_556 A
C166   H183    1.083   .     S
C166   C167    1.404   1_556 A
C167   C168    1.403   .     A
C167   C166    1.404   1_554 A
C168   C169    1.397   .     A
C168   H184    1.084   .     S
C169   H185    1.083   .     S
C170   N171    1.358   .     A
C170   N175    1.359   1_554 A
N171   N172    1.331   .     A
N172   C173    1.358   .     A
C173   C176    1.483   .     S
C173   N174    1.359   1_554 A
N174   N175    1.332   .     A
N174   C173    1.359   1_556 A
N175   C170    1.359   1_556 A
C176   C181    1.407   .     A
C176   C177    1.407   1_554 A
C177   C178    1.398   .     A
C177   H186    1.083   .     S
C177   C176    1.407   1_556 A
C178   H187    1.083   .     S
C178   C179    1.404   1_556 A
C179   C180    1.404   .     A
C179   C178    1.404   1_554 A
C180   C181    1.399   .     A
C180   H188    1.083   .     S
C181   H189    1.083   .     S
C190   C191    1.407   .     A
C190   C195    1.408   .     A
C190   C196    1.484   .     S
C191   C192    1.396   .     A
C191   H208    1.083   .     S
C192   C193    1.403   .     A
C192   H209    1.084   .     S
C193   C194    1.403   .     A
C194   C195    1.400   .     A
C194   H210    1.083   .     S
C195   H211    1.083   .     S
C196   N197    1.359   .     A
C196   N201    1.358   .     A
N197   N198    1.333   .     A
N198   C199    1.360   .     A
C199   N200    1.357   .     A
C199   C202    1.483   .     S
N200   N201    1.331   .     A
C202   C203    1.407   .     A
C202   C207    1.407   .     A
C203   C204    1.396   .     A
C203   H212    1.083   .     S
C204   C205    1.403   .     A
C204   H213    1.083   .     S
C205   C206    1.404   .     A
C206   C207    1.399   .     A
C206   H214    1.083   .     S
C207   H215    1.083   .     S
C216   C221    1.407   .     A
C216   C222    1.483   .     S
C216   C217    1.407   1_556 A
C217   C218    1.398   .     A
C217   H234    1.083   .     S
C217   C216    1.407   1_554 A
C218   H235    1.083   .     S
C218   C219    1.404   1_554 A
C219   C220    1.404   .     A
C219   C218    1.404   1_556 A
C220   C221    1.399   .     A
C220   H236    1.083   .     S
C221   H237    1.083   .     S
C222   N223    1.358   .     A
C222   N227    1.359   1_556 A
N223   N224    1.332   .     A
N224   C225    1.359   .     A
C225   C228    1.483   .     S
C225   N226    1.359   1_556 A
N226   N227    1.332   .     A
N226   C225    1.359   1_554 A
N227   C222    1.359   1_554 A
C228   C233    1.407   .     A
C228   C229    1.408   1_556 A
C229   C230    1.399   .     A
C229   H238    1.083   .     S
C229   C228    1.408   1_554 A
C230   H239    1.083   .     S
C230   C231    1.404   1_554 A
C231   C232    1.403   .     A
C231   C230    1.404   1_556 A
C232   C233    1.397   .     A
C232   H240    1.083   .     S
C233   H241    1.083   .     S
C242   C243    1.407   .     A
C242   C248    1.482   .     S
C242   C247    1.406   1_554 A
C243   C244    1.399   .     A
C243   H260    1.083   .     S
C244   C245    1.404   .     A
C244   H261    1.083   .     S
C245   C246    1.403   1_554 A
C246   C247    1.396   .     A
C246   H262    1.083   .     S
C246   C245    1.403   1_556 A
C247   H263    1.083   .     S
C247   C242    1.406   1_556 A
C248   N253    1.359   .     A
C248   N249    1.358   1_554 A
N249   N250    1.331   .     A
N249   C248    1.358   1_556 A
N250   C251    1.358   1_556 A
C251   N252    1.359   .     A
C251   C254    1.483   .     S
C251   N250    1.358   1_554 A
N252   N253    1.332   .     A
C254   C255    1.407   .     A
C254   C259    1.407   1_554 A
C255   C256    1.398   .     A
C255   H264    1.083   .     S
C256   C257    1.404   .     A
C256   H265    1.083   .     S
C257   C258    1.403   1_554 A
C258   C259    1.397   .     A
C258   H266    1.083   .     S
C258   C257    1.403   1_556 A
C259   H267    1.083   .     S
C259   C254    1.407   1_556 A
C268   C273    1.408   .     A
C268   C274    1.484   .     S
C268   C269    1.407   1_556 A
C269   C270    1.397   .     A
C269   H286    1.083   .     S
C269   C268    1.407   1_554 A
C270   H287    1.084   .     S
C270   C271    1.404   1_554 A
C271   C272    1.404   .     A
C271   C270    1.404   1_556 A
C272   C273    1.400   .     A
C272   H288    1.083   .     S
C273   H289    1.083   .     S
C274   N275    1.359   .     A
C274   N279    1.358   1_556 A
N275   N276    1.333   .     A
N276   C277    1.359   .     A
C277   C280    1.485   .     S
C277   N278    1.359   1_556 A
N278   N279    1.332   .     A
N278   C277    1.359   1_554 A
N279   C274    1.358   1_554 A
C280   C285    1.408   .     A
C280   C281    1.407   1_556 A
C281   C282    1.397   .     A
C281   H290    1.083   .     S
C281   C280    1.407   1_554 A
C282   H291    1.083   .     S
C282   C283    1.404   1_554 A
C283   C284    1.404   .     A
C283   C282    1.404   1_556 A
C284   C285    1.400   .     A
C284   H292    1.083   .     S
C285   H293    1.083   .     S
