data_kag+N139+E15
_audit_creation_date              2025-01-21
_audit_creation_method            'Materials Studio'
_symmetry_space_group_name_H-M    'P1'
_symmetry_Int_Tables_number       1
_symmetry_cell_setting            triclinic
loop_
_symmetry_equiv_pos_as_xyz
  x,y,z
_cell_length_a                    24.8173
_cell_length_b                    17.4049
_cell_length_c                    13.4516
_cell_angle_alpha                 95.9574
_cell_angle_beta                  97.7097
_cell_angle_gamma                 117.6437
loop_
_atom_site_label
_atom_site_type_symbol
_atom_site_fract_x
_atom_site_fract_y
_atom_site_fract_z
_atom_site_U_iso_or_equiv
_atom_site_adp_type
_atom_site_occupancy
C0     C     0.50268   0.46942   0.70691   0.00000  Uiso   1.00
Sm1    Sm    0.42430   0.45740   0.13393   0.00000  Uiso   1.00
Sm2    Sm    0.56368   0.51215   0.89733   0.00000  Uiso   1.00
C3     C     0.51377   0.39019   0.06222   0.00000  Uiso   1.00
C4     C     0.66805   0.50639   0.92113   0.00000  Uiso   1.00
O5     O     0.47981   0.50423   0.29576   0.00000  Uiso   1.00
O6     O     0.38750   0.39315   0.26214   0.00000  Uiso   1.00
O7     O     0.53469   0.61657   0.92977   0.00000  Uiso   1.00
O8     O     0.47464   0.53126   0.01838   0.00000  Uiso   1.00
O9     O     0.33207   0.40358   1.02987   0.00000  Uiso   1.00
O10    O     0.36463   0.52095   0.14418   0.00000  Uiso   1.00
O11    O     0.47733   0.43239   0.77818   0.00000  Uiso   1.00
O12    O     0.56011   0.52809   0.73455   0.00000  Uiso   1.00
O13    O     0.46522   0.36710   0.10038   0.00000  Uiso   1.00
O14    O     0.54407   0.46936   1.04907   0.00000  Uiso   1.00
O15    O     0.66535   0.57535  -0.04289   0.00000  Uiso   1.00
O16    O     0.61629   0.43961   0.87412   0.00000  Uiso   1.00
C17    C     0.43611   0.44494   0.32970   0.00000  Uiso   1.00
C18    C     0.49460   0.60278   0.98494   0.00000  Uiso   1.00
C19    C     0.32028   0.46119   0.07414   0.00000  Uiso   1.00
C20    C     1.02949   0.57208   0.29278   0.00000  Uiso   1.00
Sm21   Sm    0.95969   0.50622   0.81470   0.00000  Uiso   1.00
Sm22   Sm    0.04671   0.54282   0.10934   0.00000  Uiso   1.00
C23    C     0.09584   0.60799   0.92585   0.00000  Uiso   1.00
C24    C     0.12947   0.49234   0.08252   0.00000  Uiso   1.00
O25    O     0.96129   0.47047   0.65128   0.00000  Uiso   1.00
O26    O    -0.01947   0.60270   0.71176   0.00000  Uiso   1.00
O27    O     0.94335   0.47454   0.04948   0.00000  Uiso   1.00
O28    O     0.93198   0.39322   0.90097   0.00000  Uiso   1.00
O29    O     0.92649   0.57081  -0.07459   0.00000  Uiso   1.00
O30    O     0.86183   0.48134   0.78960   0.00000  Uiso   1.00
O31    O     0.04098   0.62896   0.23439   0.00000  Uiso   1.00
O32    O     1.02874   0.50012   0.25686   0.00000  Uiso   1.00
O33    O     0.06147   0.54648   0.85101   0.00000  Uiso   1.00
O34    O     0.07064   0.62865  -0.00868   0.00000  Uiso   1.00
O35    O     0.07283   0.44941   1.03417   0.00000  Uiso   1.00
O36    O     0.14357   0.56224   0.14664   0.00000  Uiso   1.00
C37    C    -0.02373   0.54858   0.63576   0.00000  Uiso   1.00
C38    C     0.91669   0.40114  -0.01292   0.00000  Uiso   1.00
C39    C     0.87040   0.52917   0.87469   0.00000  Uiso   1.00
C40    C     0.49250  -0.03249   0.32067   0.00000  Uiso   1.00
Sm41   Sm    0.58727   0.05297   0.90912   0.00000  Uiso   1.00
Sm42   Sm    0.43698   0.93911   0.12811   0.00000  Uiso   1.00
C43    C     0.48929   0.87532   0.95283   0.00000  Uiso   1.00
C44    C     0.32387   0.80466   0.06095   0.00000  Uiso   1.00
O45    O     0.53071   0.04264   0.75567   0.00000  Uiso   1.00
O46    O     0.61278   1.02963   0.76116   0.00000  Uiso   1.00
O47    O     0.48241   0.08586   0.12540   0.00000  Uiso   1.00
O48    O     0.55112   0.07287   1.05054   0.00000  Uiso   1.00
O49    O     0.67850   0.08995   0.00611   0.00000  Uiso   1.00
O50    O     0.66717   0.19017   0.93770   0.00000  Uiso   1.00
O51    O     0.51666   0.95883   0.24473   0.00000  Uiso   1.00
O52    O     0.43823  -0.03973   0.29660   0.00000  Uiso   1.00
O53    O     0.53345   0.90621   0.90520   0.00000  Uiso   1.00
O54    O     0.46359   0.92117  -0.02384   0.00000  Uiso   1.00
O55    O     0.33757   0.88400   1.05246   0.00000  Uiso   1.00
O56    O     0.36844   0.79573   0.10876   0.00000  Uiso   1.00
C57    C     0.56714   1.02979   0.70552   0.00000  Uiso   1.00
C58    C     0.52572   0.11867   0.07598   0.00000  Uiso   1.00
C59    C     0.70384   0.16903   0.98986   0.00000  Uiso   1.00
N60    N     0.40718   0.38598   0.57155   0.00000  Uiso   1.00
N61    N     0.39003   0.37963   0.47263   0.00000  Uiso   1.00
C62    C     0.43940   0.43540   0.43732   0.00000  Uiso   1.00
C63    C     0.49045   0.47986   0.51752   0.00000  Uiso   1.00
C64    C     0.46781   0.44599   0.60135   0.00000  Uiso   1.00
H65    H     0.53711   0.52918   0.51532   0.00000  Uiso   1.00
H66    H     0.37753   0.35012   0.61770   0.00000  Uiso   1.00
H67    H     0.34500   0.33799   0.43034   0.00000  Uiso   1.00
N68    N     0.01971   0.66510   0.43304   0.00000  Uiso   1.00
N69    N     0.00385   0.65796   0.52254   0.00000  Uiso   1.00
C70    C    -0.00971   0.57684   0.53998   0.00000  Uiso   1.00
C71    C     0.99754   0.52985   0.45848   0.00000  Uiso   1.00
C72    C     1.01646   0.58862   0.39266   0.00000  Uiso   1.00
H73    H     0.99122   0.46352   0.44934   0.00000  Uiso   1.00
H74    H     0.03266   0.72149   0.40066   0.00000  Uiso   1.00
H75    H     0.00358   0.70848   0.57141   0.00000  Uiso   1.00
N76    N     0.60347   1.01124   0.54722   0.00000  Uiso   1.00
N77    N     0.58367   0.99318   0.44746   0.00000  Uiso   1.00
C78    C     0.52674  -0.01417   0.42651   0.00000  Uiso   1.00
C79    C     0.50909  -0.00049   0.51821   0.00000  Uiso   1.00
C80    C     0.55959   1.01530   0.59315   0.00000  Uiso   1.00
H81    H     0.46584  -0.00318   0.52877   0.00000  Uiso   1.00
H82    H     0.64666   1.02078   0.58310   0.00000  Uiso   1.00
H83    H     0.60933   0.98689   0.39470   0.00000  Uiso   1.00
N84    N     0.16242   0.40291   0.97757   0.00000  Uiso   1.00
N85    N     0.21335   0.39780   0.97182   0.00000  Uiso   1.00
C86    C     0.25896   0.45543   1.05021   0.00000  Uiso   1.00
C87    C     0.23618   0.49969   1.10862   0.00000  Uiso   1.00
C88    C     0.17457   0.46419   1.05953   0.00000  Uiso   1.00
H89    H     0.26031   0.54894   1.17782   0.00000  Uiso   1.00
H90    H     0.12051   0.36659   0.92433   0.00000  Uiso   1.00
H91    H     0.21670   0.35610   0.91445   0.00000  Uiso   1.00
N92    N     0.81153   0.19825   0.05088   0.00000  Uiso   1.00
N93    N     0.86806   0.25836   0.04595   0.00000  Uiso   1.00
C94    C     0.86459   0.32637   0.01228   0.00000  Uiso   1.00
C95    C     0.80364   0.31012  -0.00315   0.00000  Uiso   1.00
C96    C     0.77124   0.22707   0.01990   0.00000  Uiso   1.00
H97    H     0.78461   0.34941  -0.03420   0.00000  Uiso   1.00
H98    H     0.80047   0.13630   0.06883   0.00000  Uiso   1.00
H99    H     0.90773   0.25118   0.06148   0.00000  Uiso   1.00
N100   N     0.75580   0.49920   0.02162   0.00000  Uiso   1.00
N101   N     0.81137   0.51211   0.01126   0.00000  Uiso   1.00
C102   C     0.81860   0.52697  -0.08339   0.00000  Uiso   1.00
C103   C     0.76491   0.52169  -0.13688   0.00000  Uiso   1.00
C104   C     0.72671   0.50498  -0.06661   0.00000  Uiso   1.00
H105   H     0.75504   0.52864   0.78479   0.00000  Uiso   1.00
H106   H     0.73748   0.48419   0.08676   0.00000  Uiso   1.00
H107   H     0.84235   0.50546   0.06565   0.00000  Uiso   1.00
N108   N     0.19332   0.60075   0.92367   0.00000  Uiso   1.00
N109   N     0.25277   0.65005   0.96739   0.00000  Uiso   1.00
C110   C     0.26242   0.72922   1.01340   0.00000  Uiso   1.00
C111   C     0.20637   0.72971   1.00071   0.00000  Uiso   1.00
C112   C     0.16364   0.64656   0.94466   0.00000  Uiso   1.00
H113   H     0.19760   0.78199   1.03075   0.00000  Uiso   1.00
H114   H     0.17310   0.53511   0.88577   0.00000  Uiso   1.00
H115   H     0.28536   0.62790   0.96901   0.00000  Uiso   1.00
N116   N     0.41466   0.65024   0.97997   0.00000  Uiso   1.00
N117   N     0.41357   0.72383   0.96655   0.00000  Uiso   1.00
C118   C     0.47208   0.79045   0.98459   0.00000  Uiso   1.00
C119   C     0.51238   0.75779   1.00865   0.00000  Uiso   1.00
C120   C     0.47435   0.66859   1.00539   0.00000  Uiso   1.00
H121   H     0.56205   0.79140   1.01268   0.00000  Uiso   1.00
H122   H     0.37595   0.58744   0.95719   0.00000  Uiso   1.00
H123   H     0.37464   0.72657   0.93134   0.00000  Uiso   1.00
N124   N     0.59975   0.27347   0.06172   0.00000  Uiso   1.00
N125   N     0.59612   0.34674   0.05792   0.00000  Uiso   1.00
C126   C     0.53567   0.32608   0.04058   0.00000  Uiso   1.00
C127   C     0.49958   0.23604   0.03340   0.00000  Uiso   1.00
C128   C     0.54153   0.20474   0.04693   0.00000  Uiso   1.00
H129   H     0.45024   0.20008   0.03274   0.00000  Uiso   1.00
H130   H     0.64121   0.27264   0.08607   0.00000  Uiso   1.00
H131   H     0.63427   0.41047   0.07975   0.00000  Uiso   1.00
loop_
_geom_bond_atom_site_label_1
_geom_bond_atom_site_label_2
_geom_bond_distance
_geom_bond_site_symmetry_2
_ccdc_geom_bond_type
C0     O11     1.282   .     A
C0     O12     1.281   .     A
C0     C64     1.468   .     S
Sm1    O5      2.255   .     S
Sm1    O6      2.221   .     S
Sm1    O8      2.253   .     S
Sm1    O10     2.231   .     S
Sm1    O13     2.272   .     S
Sm1    O9      2.226   1_554 S
Sm2    O7      2.268   .     S
Sm2    O11     2.224   .     S
Sm2    O12     2.231   .     S
Sm2    O14     2.281   .     S
Sm2    O16     2.226   .     S
Sm2    O15     2.218   1_556 S
C3     O13     1.279   .     A
C3     C126    1.471   .     S
C3     O14     1.273   1_554 A
C4     O16     1.283   .     A
C4     O15     1.282   1_556 A
C4     C104    1.455   1_556 S
O5     C17     1.281   .     A
O6     C17     1.273   .     A
O7     C18     1.270   .     A
O8     C18     1.265   1_554 A
O9     Sm1     2.226   1_556 S
O9     C19     1.281   1_556 A
O10    C19     1.279   .     A
O14    C3      1.273   1_556 A
O15    Sm2     2.218   1_554 S
O15    C4      1.282   1_554 A
C17    C62     1.470   .     S
C18    C120    1.465   .     S
C18    O8      1.265   1_556 A
C19    O9      1.281   1_554 A
C19    C86     1.466   1_554 S
C20    O32     1.285   .     A
C20    C72     1.454   .     S
C20    O31     1.280   1_655 A
Sm21   O25     2.232   .     S
Sm21   O28     2.263   .     S
Sm21   O30     2.230   .     S
Sm21   O26     2.208   1_655 S
Sm21   O29     2.236   1_556 S
Sm21   O33     2.251   1_655 S
Sm22   O31     2.199   .     S
Sm22   O34     2.242   .     S
Sm22   O36     2.243   .     S
Sm22   O27     2.249   1_455 S
Sm22   O32     2.219   1_455 S
Sm22   O35     2.213   1_554 S
C23    O33     1.259   .     A
C23    C112    1.466   .     S
C23    O34     1.260   1_556 A
C24    O36     1.285   .     A
C24    O35     1.279   1_554 A
C24    C88     1.469   1_554 S
O25    C37     1.281   1_655 A
O26    C37     1.274   .     A
O26    Sm21    2.208   1_455 S
O27    C38     1.272   .     A
O27    Sm22    2.249   1_655 S
O28    C38     1.280   1_556 A
O29    Sm21    2.236   1_554 S
O29    C39     1.279   1_554 A
O30    C39     1.273   .     A
O31    C20     1.280   1_455 A
O32    Sm22    2.219   1_655 S
O33    Sm21    2.251   1_455 S
O34    C23     1.260   1_554 A
O35    Sm22    2.213   1_556 S
O35    C24     1.279   1_556 A
C37    C70     1.455   .     S
C37    O25     1.281   1_455 A
C38    C94     1.459   .     S
C38    O28     1.280   1_554 A
C39    O29     1.279   1_556 A
C39    C102    1.458   1_556 S
C40    O52     1.285   .     A
C40    C78     1.477   .     S
C40    O51     1.282   1_545 A
Sm41   O45     2.275   .     S
Sm41   O48     2.270   .     S
Sm41   O50     2.234   .     S
Sm41   O46     2.222   1_545 S
Sm41   O49     2.219   1_556 S
Sm41   O53     2.258   1_545 S
Sm42   O51     2.217   .     S
Sm42   O54     2.266   .     S
Sm42   O56     2.235   .     S
Sm42   O47     2.270   1_565 S
Sm42   O52     2.252   1_565 S
Sm42   O55     2.229   1_554 S
C43    O53     1.270   .     A
C43    C118    1.463   .     S
C43    O54     1.271   1_556 A
C44    O56     1.285   .     A
C44    O55     1.282   1_554 A
C44    C110    1.471   1_554 S
O45    C57     1.282   1_545 A
O46    C57     1.272   .     A
O46    Sm41    2.222   1_565 S
O47    C58     1.274   .     A
O47    Sm42    2.270   1_545 S
O48    C58     1.272   1_556 A
O49    Sm41    2.219   1_554 S
O49    C59     1.278   1_554 A
O50    C59     1.284   .     A
O51    C40     1.282   1_565 A
O52    Sm42    2.252   1_545 S
O53    Sm41    2.258   1_565 S
O54    C43     1.271   1_554 A
O55    Sm42    2.229   1_556 S
O55    C44     1.282   1_556 A
C57    C80     1.478   .     S
C57    O45     1.282   1_565 A
C58    C128    1.472   .     S
C58    O48     1.272   1_554 A
C59    O49     1.278   1_556 A
C59    C96     1.465   1_556 S
N60    N61     1.318   .     A
N60    C64     1.345   .     A
N60    H66     1.046   .     S
N61    C62     1.348   .     A
N61    H67     1.044   .     S
C62    C63     1.385   .     A
C63    C64     1.391   .     A
C63    H65     1.082   .     S
N68    N69     1.316   .     A
N68    H74     1.044   .     S
N68    C72     1.346   1_455 A
N69    C70     1.346   .     A
N69    H75     1.045   .     S
C70    C71     1.381   1_455 A
C71    C72     1.380   .     A
C71    H73     1.082   .     S
C71    C70     1.381   1_655 A
C72    N68     1.346   1_655 A
N76    N77     1.317   .     A
N76    C80     1.347   .     A
N76    H82     1.044   .     S
N77    H83     1.045   .     S
N77    C78     1.345   1_565 A
C78    C79     1.397   .     A
C78    N77     1.345   1_545 A
C79    H81     1.082   .     S
C79    C80     1.395   1_545 A
C80    C79     1.395   1_565 A
N84    N85     1.319   .     A
N84    C88     1.346   .     A
N84    H90     1.044   .     S
N85    C86     1.344   .     A
N85    H91     1.042   .     S
C86    C87     1.389   .     A
C86    C19     1.466   1_556 S
C87    C88     1.387   .     A
C87    H89     1.081   .     S
C88    C24     1.469   1_556 S
N92    N93     1.321   .     A
N92    C96     1.350   .     A
N92    H98     1.046   .     S
N93    C94     1.345   .     A
N93    H99     1.045   .     S
C94    C95     1.385   .     A
C95    C96     1.383   .     A
C95    H97     1.082   .     S
C96    C59     1.465   1_554 S
N100   N101    1.320   .     A
N100   C104    1.343   .     A
N100   H106    1.043   .     S
N101   C102    1.344   .     A
N101   H107    1.044   .     S
C102   C103    1.385   .     A
C102   C39     1.458   1_554 S
C103   C104    1.385   .     A
C103   H105    1.081   1_554 S
C104   C4      1.455   1_554 S
H105   C103    1.081   1_556 S
N108   N109    1.322   .     A
N108   C112    1.346   .     A
N108   H114    1.047   .     S
N109   C110    1.348   .     A
N109   H115    1.044   .     S
C110   C111    1.383   .     A
C110   C44     1.471   1_556 S
C111   C112    1.387   .     A
C111   H113    1.081   .     S
N116   N117    1.324   .     A
N116   C120    1.347   .     A
N116   H122    1.043   .     S
N117   C118    1.340   .     A
N117   H123    1.041   .     S
C118   C119    1.381   .     A
C119   C120    1.385   .     A
C119   H121    1.082   .     S
N124   N125    1.325   .     A
N124   C128    1.352   .     A
N124   H130    1.044   .     S
N125   C126    1.350   .     A
N125   H131    1.047   .     S
C126   C127    1.382   .     A
C127   C128    1.382   .     A
C127   H129    1.084   .     S
