data_kag+N505+E220
_audit_creation_date              2025-01-21
_audit_creation_method            'Materials Studio'
_symmetry_space_group_name_H-M    'P1'
_symmetry_Int_Tables_number       1
_symmetry_cell_setting            triclinic
loop_
_symmetry_equiv_pos_as_xyz
  x,y,z
_cell_length_a                    22.2658
_cell_length_b                    18.4516
_cell_length_c                    12.8884
_cell_angle_alpha                 106.0754
_cell_angle_beta                  79.9528
_cell_angle_gamma                 104.2278
loop_
_atom_site_label
_atom_site_type_symbol
_atom_site_fract_x
_atom_site_fract_y
_atom_site_fract_z
_atom_site_U_iso_or_equiv
_atom_site_adp_type
_atom_site_occupancy
Yb0    Yb    0.57314   0.46982   0.80778   0.00000  Uiso   1.00
Yb1    Yb    0.39793   0.46757   0.09051   0.00000  Uiso   1.00
C2     C     0.28706   0.45945   0.08594   0.00000  Uiso   1.00
O3     O     0.52525   0.41014   0.67449   0.00000  Uiso   1.00
O4     O     0.57787   0.53035   0.68871   0.00000  Uiso   1.00
O5     O     0.49066   0.50571  -0.10719   0.00000  Uiso   1.00
O6     O     0.41308   0.55061   0.99100   0.00000  Uiso   1.00
O7     O     0.66591   0.45620   0.75911   0.00000  Uiso   1.00
O8     O     0.63938   0.54008  -0.09133   0.00000  Uiso   1.00
O9     O     0.45754   0.52452   0.20939   0.00000  Uiso   1.00
O10    O     0.39497   0.41177   0.21334   0.00000  Uiso   1.00
C11    C     0.54113   0.47065   0.63610   0.00000  Uiso   1.00
O12    O     0.55575   0.37947  -0.10491   0.00000  Uiso   1.00
O13    O     0.47408   0.41632   0.99695   0.00000  Uiso   1.00
O14    O     0.31672   0.50601   0.16410   0.00000  Uiso   1.00
C15    C     0.45746   0.55539  -0.08484   0.00000  Uiso   1.00
O16    O     0.31615   0.41045   1.01613   0.00000  Uiso   1.00
C17    C     0.68212   0.50708   0.84723   0.00000  Uiso   1.00
C18    C     0.43707   0.46884   0.25736   0.00000  Uiso   1.00
C19    C     0.50973   0.36830  -0.03282   0.00000  Uiso   1.00
Yb20   Yb   -0.00050   0.67194   1.02326   0.00000  Uiso   1.00
Yb21   Yb    0.95588   0.47390   0.18688   0.00000  Uiso   1.00
C22    C     0.88888   0.33990   0.11114   0.00000  Uiso   1.00
O23    O     0.04251   0.60019   0.87999   0.00000  Uiso   1.00
O24    O     0.95578   0.62814   0.87754   0.00000  Uiso   1.00
O25    O     0.93805   0.58458   1.09187   0.00000  Uiso   1.00
O26    O     0.87648   0.47773   1.11214   0.00000  Uiso   1.00
O27    O     0.07029   0.76424   0.98694   0.00000  Uiso   1.00
O28    O     0.06322   0.72829   0.13780   0.00000  Uiso   1.00
O29    O     0.91882   0.46727   0.34273   0.00000  Uiso   1.00
O30    O     0.02090   0.48542   0.29346   0.00000  Uiso   1.00
C31    C     0.99882   0.59455   0.82443   0.00000  Uiso   1.00
O32    O     0.06552   0.59248  -0.01318   0.00000  Uiso   1.00
O33    O     0.00762   0.48692   0.03297   0.00000  Uiso   1.00
O34    O     0.87234   0.40267   0.11978   0.00000  Uiso   1.00
C35    C     0.88858   0.53464   1.06837   0.00000  Uiso   1.00
O36    O     0.94344   0.34900   1.13593   0.00000  Uiso   1.00
C37    C     0.09300   0.77318   1.07627   0.00000  Uiso   1.00
C38    C    -0.02549   0.48033   0.36978   0.00000  Uiso   1.00
C39    C     0.06067   0.53090   0.02035   0.00000  Uiso   1.00
Yb40   Yb    0.45587   0.97542   0.10720   0.00000  Uiso   1.00
Yb41   Yb    0.62848  -0.02106   0.83141   0.00000  Uiso   1.00
C42    C     0.71405   0.07287   0.92294   0.00000  Uiso   1.00
O43    O     0.52041   0.95323   0.18651   0.00000  Uiso   1.00
O44    O     0.47996   0.05526   0.25611   0.00000  Uiso   1.00
O45    O     0.53011   0.02751   0.00476   0.00000  Uiso   1.00
O46    O     0.58311   0.08017  -0.12018   0.00000  Uiso   1.00
O47    O     0.37293   0.92582   0.18850   0.00000  Uiso   1.00
O48    O     0.37212   0.99543   1.07562   0.00000  Uiso   1.00
O49    O     0.59193   0.05097   0.75817   0.00000  Uiso   1.00
O50    O     0.61025   0.94236   0.66531   0.00000  Uiso   1.00
C51    C     0.51548   0.01211   0.26622   0.00000  Uiso   1.00
O52    O     0.44807   0.87370   0.97130   0.00000  Uiso   1.00
O53    O     0.53961   0.90873   0.88003   0.00000  Uiso   1.00
O54    O     0.71651   0.05247   0.81839   0.00000  Uiso   1.00
C55    C     0.54451   0.08567  -0.03386   0.00000  Uiso   1.00
O56    O     0.66568   0.03988  -0.02271   0.00000  Uiso   1.00
C57    C     0.34063   0.95032   0.13656   0.00000  Uiso   1.00
C58    C     0.59340   1.00297   0.66515   0.00000  Uiso   1.00
C59    C     0.49277   0.85625   0.89801   0.00000  Uiso   1.00
C60    C     0.46158   0.47088   0.35733   0.00000  Uiso   1.00
C61    C     0.42323   0.44204   0.44327   0.00000  Uiso   1.00
C62    C     0.45101   0.44066   0.53228   0.00000  Uiso   1.00
C63    C     0.51477   0.47169   0.54026   0.00000  Uiso   1.00
C64    C     0.55159   0.50399   0.45826   0.00000  Uiso   1.00
C65    C     0.52523   0.50312   0.36710   0.00000  Uiso   1.00
O66    O     0.32457   0.37159   0.50303   0.00000  Uiso   1.00
O67    O     0.32626   0.45593   0.40594   0.00000  Uiso   1.00
N68    N     0.35639   0.41875   0.44457   0.00000  Uiso   1.00
H69    H     0.60095   0.52822   0.46328   0.00000  Uiso   1.00
H70    H     0.55505   0.52635   0.30279   0.00000  Uiso   1.00
H71    H     0.42222   0.41871   0.59844   0.00000  Uiso   1.00
C72    C     0.99652   0.55373   0.70868   0.00000  Uiso   1.00
C73    C     0.05034   0.54751   0.63173   0.00000  Uiso   1.00
C74    C     0.04286   0.51730   0.52040   0.00000  Uiso   1.00
C75    C    -0.01675   0.49474   0.48524   0.00000  Uiso   1.00
C76    C     0.93058   0.49622   0.56302   0.00000  Uiso   1.00
C77    C     0.93726   0.52559   0.67262   0.00000  Uiso   1.00
O78    O     0.15593   0.53772   0.61694   0.00000  Uiso   1.00
O79    O     0.12776   0.64585   0.72284   0.00000  Uiso   1.00
N80    N     0.11232   0.57625   0.66298   0.00000  Uiso   1.00
H81    H     0.88379   0.47928   0.53905   0.00000  Uiso   1.00
H82    H     0.89557   0.52964   0.72978   0.00000  Uiso   1.00
H83    H     0.08386   0.51657   0.46100   0.00000  Uiso   1.00
C84    C     0.54513   0.02368   0.36642   0.00000  Uiso   1.00
C85    C     0.58876   0.97910   0.36627   0.00000  Uiso   1.00
C86    C     0.60350   0.97370   0.46459   0.00000  Uiso   1.00
C87    C     0.57858   1.01512   0.56443   0.00000  Uiso   1.00
C88    C     0.53981   0.06490   0.56501   0.00000  Uiso   1.00
C89    C     0.52268   0.06840   0.46666   0.00000  Uiso   1.00
O90    O     0.65155   0.97442   0.19727   0.00000  Uiso   1.00
O91    O     0.61137   0.86330   0.24804   0.00000  Uiso   1.00
N92    N     0.61764   0.93770   0.26734   0.00000  Uiso   1.00
H93    H     0.52070   0.09823   0.64125   0.00000  Uiso   1.00
H94    H     0.48948   0.10317   0.46951   0.00000  Uiso   1.00
H95    H     0.63492   0.93660   0.46258   0.00000  Uiso   1.00
C96    C     0.22669   0.47134   0.07007   0.00000  Uiso   1.00
C97    C     0.16972   0.41600   0.06994   0.00000  Uiso   1.00
C98    C     0.11568   0.43580   0.05159   0.00000  Uiso   1.00
C99    C     0.11766   0.50845   0.03436   0.00000  Uiso   1.00
C100   C     0.17425   0.56195   1.03532   0.00000  Uiso   1.00
C101   C     0.22777   0.54373   1.05320   0.00000  Uiso   1.00
O102   O     0.11115   0.29398   0.09525   0.00000  Uiso   1.00
O103   O     0.21080   0.32655   0.12653   0.00000  Uiso   1.00
N104   N     0.16476   0.34221   0.09304   0.00000  Uiso   1.00
H105   H     0.17663   0.61877   1.02494   0.00000  Uiso   1.00
H106   H     0.27075   0.58694   1.05419   0.00000  Uiso   1.00
H107   H     0.07165   0.39490   0.05225   0.00000  Uiso   1.00
C108   C     0.84793   0.26477   0.07454   0.00000  Uiso   1.00
C109   C     0.78690   0.24725   0.12827   0.00000  Uiso   1.00
C110   C     0.74495   0.18156   0.07917   0.00000  Uiso   1.00
C111   C     0.76197   0.13452   0.97799   0.00000  Uiso   1.00
C112   C     0.82317   0.15044   0.92814   0.00000  Uiso   1.00
C113   C     0.86610   0.21483   0.97636   0.00000  Uiso   1.00
O114   O     0.70699   0.29708   0.25470   0.00000  Uiso   1.00
O115   O     0.80444   0.33592   0.29970   0.00000  Uiso   1.00
N116   N     0.76597   0.29636   0.22910   0.00000  Uiso   1.00
H117   H     0.83698   0.11458   0.84941   0.00000  Uiso   1.00
H118   H     0.91240   0.22848   0.93389   0.00000  Uiso   1.00
H119   H     0.69773   0.16911   0.11775   0.00000  Uiso   1.00
C120   C     0.84821   0.53613   0.99006   0.00000  Uiso   1.00
C121   C     0.83006   0.46948   0.90618   0.00000  Uiso   1.00
C122   C     0.77869   0.46369   0.85237   0.00000  Uiso   1.00
C123   C     0.74467   0.52257   0.88225   0.00000  Uiso   1.00
C124   C     0.76614   0.59083  -0.04115   0.00000  Uiso   1.00
C125   C     0.81789   0.59779   0.01173   0.00000  Uiso   1.00
O126   O     0.83200   0.33633   0.84168   0.00000  Uiso   1.00
O127   O     0.92214   0.42016   0.87495   0.00000  Uiso   1.00
N128   N     0.86184   0.40656   0.87783   0.00000  Uiso   1.00
H129   H     0.74049   0.63693  -0.01731   0.00000  Uiso   1.00
H130   H     0.83079   0.64869   0.07621   0.00000  Uiso   1.00
H131   H     0.76256   0.41109   0.79262   0.00000  Uiso   1.00
C132   C     0.27197   0.92032   0.13894   0.00000  Uiso   1.00
C133   C     0.23548   0.93643   0.07117   0.00000  Uiso   1.00
C134   C     0.17626   0.88923   1.05272   0.00000  Uiso   1.00
C135   C     0.15170   0.82862   1.10428   0.00000  Uiso   1.00
C136   C     0.18575   0.81764   1.17866   0.00000  Uiso   1.00
C137   C     0.24499   0.86256   0.19546   0.00000  Uiso   1.00
O138   O     0.24764   0.99075   0.92000   0.00000  Uiso   1.00
O139   O     0.28057   1.06797   0.07619   0.00000  Uiso   1.00
N140   N     0.25790   0.99928   0.01959   0.00000  Uiso   1.00
H141   H     0.16789   0.77116   0.21938   0.00000  Uiso   1.00
H142   H     0.27134   0.84864   0.24800   0.00000  Uiso   1.00
H143   H     0.14950   0.89966   0.99766   0.00000  Uiso   1.00
C144   C     0.49107   0.77354   0.84839   0.00000  Uiso   1.00
C145   C     0.54275   0.74123   0.84699   0.00000  Uiso   1.00
C146   C     0.53206   0.66531   0.85801   0.00000  Uiso   1.00
C147   C     0.47136   0.62129   0.86596   0.00000  Uiso   1.00
C148   C     0.42196   0.64944   0.84901   0.00000  Uiso   1.00
C149   C     0.43190   0.72482   0.83891   0.00000  Uiso   1.00
O150   O     0.64314   0.78005   0.90673   0.00000  Uiso   1.00
O151   O     0.62758   0.81844   0.76476   0.00000  Uiso   1.00
N152   N     0.60493   0.78642   0.84549   0.00000  Uiso   1.00
H153   H     0.37475   0.61552  -0.14644   0.00000  Uiso   1.00
H154   H     0.39171   0.74793  -0.16213   0.00000  Uiso   1.00
H155   H     0.57068   0.64332   0.86953   0.00000  Uiso   1.00
C156   C     0.49896   0.29862   0.00720   0.00000  Uiso   1.00
C157   C     0.53922   0.29157   0.07598   0.00000  Uiso   1.00
C158   C     0.54511   0.21775   0.07666   0.00000  Uiso   1.00
C159   C     0.51462   0.15213   0.00544   0.00000  Uiso   1.00
C160   C     0.47030   0.15898   0.94604   0.00000  Uiso   1.00
C161   C     0.46179   0.23195   0.94861   0.00000  Uiso   1.00
O162   O     0.58849   0.35808   0.23486   0.00000  Uiso   1.00
O163   O     0.61088   0.41260   0.09364   0.00000  Uiso   1.00
N164   N     0.57794   0.35814   0.13882   0.00000  Uiso   1.00
H165   H     0.44681   0.10878   0.88982   0.00000  Uiso   1.00
H166   H     0.43188   0.23660   0.89392   0.00000  Uiso   1.00
H167   H     0.58029   0.21236   0.12112   0.00000  Uiso   1.00
loop_
_geom_bond_atom_site_label_1
_geom_bond_atom_site_label_2
_geom_bond_distance
_geom_bond_site_symmetry_2
_ccdc_geom_bond_type
Yb0    O3      2.077   .     S
Yb0    O4      2.109   .     S
Yb0    O7      2.107   .     S
Yb0    O5      2.123   1_556 S
Yb0    O8      2.084   1_556 S
Yb0    O12     2.183   1_556 S
Yb1    O9      2.085   .     S
Yb1    O10     2.098   .     S
Yb1    O14     2.081   .     S
Yb1    O6      2.188   1_554 S
Yb1    O13     2.160   1_554 S
Yb1    O16     2.110   1_554 S
C2     O14     1.289   .     A
C2     C96     1.471   .     S
C2     O16     1.296   1_554 A
O3     C11     1.291   .     A
O4     C11     1.296   .     A
O5     C15     1.258   .     A
O5     Yb0     2.123   1_554 S
O6     Yb1     2.188   1_556 S
O6     C15     1.268   1_556 A
O7     C17     1.299   .     A
O8     Yb0     2.084   1_554 S
O8     C17     1.288   1_554 A
O9     C18     1.292   .     A
O10    C18     1.296   .     A
C11    C63     1.464   .     S
O12    C19     1.275   .     A
O12    Yb0     2.183   1_554 S
O13    Yb1     2.160   1_556 S
O13    C19     1.270   1_556 A
C15    O6      1.268   1_554 A
C15    C147    1.466   1_554 S
O16    Yb1     2.110   1_556 S
O16    C2      1.296   1_556 A
C17    C123    1.476   .     S
C17    O8      1.288   1_556 A
C18    C60     1.472   .     S
C19    C156    1.466   .     S
C19    O13     1.270   1_554 A
Yb20   O23     2.175   .     S
Yb20   O27     2.114   .     S
Yb20   O24     2.130   1_455 S
Yb20   O25     2.130   1_455 S
Yb20   O28     2.104   1_556 S
Yb20   O32     2.229   1_556 S
Yb21   O29     2.059   .     S
Yb21   O34     2.160   .     S
Yb21   O26     2.180   1_554 S
Yb21   O30     2.100   1_655 S
Yb21   O33     2.156   1_655 S
Yb21   O36     2.175   1_554 S
C22    O34     1.270   .     A
C22    C108    1.464   .     S
C22    O36     1.269   1_554 A
O23    C31     1.274   1_455 A
O24    C31     1.265   .     A
O24    Yb20    2.130   1_655 S
O25    C35     1.271   .     A
O25    Yb20    2.130   1_655 S
O26    C35     1.277   .     A
O26    Yb21    2.180   1_556 S
O27    C37     1.290   .     A
O28    Yb20    2.104   1_554 S
O28    C37     1.290   1_554 A
O29    C38     1.294   1_655 A
O30    C38     1.301   .     A
O30    Yb21    2.100   1_455 S
C31    C72     1.477   .     S
C31    O23     1.274   1_655 A
O32    C39     1.298   .     A
O32    Yb20    2.229   1_554 S
O33    C39     1.271   .     A
O33    Yb21    2.156   1_455 S
C35    C120    1.474   .     S
O36    Yb21    2.175   1_556 S
O36    C22     1.269   1_556 A
C37    C135    1.479   .     S
C37    O28     1.290   1_556 A
C38    C75     1.476   .     S
C38    O29     1.294   1_455 A
C39    C99     1.481   .     S
Yb40   O43     2.076   .     S
Yb40   O47     2.091   .     S
Yb40   O44     2.132   1_565 S
Yb40   O45     2.135   1_565 S
Yb40   O48     2.113   1_554 S
Yb40   O52     2.179   1_554 S
Yb41   O49     2.194   .     S
Yb41   O54     2.101   .     S
Yb41   O46     2.227   1_556 S
Yb41   O50     2.138   1_545 S
Yb41   O53     2.178   1_545 S
Yb41   O56     2.098   1_556 S
C42    O54     1.290   .     A
C42    C111    1.469   .     S
C42    O56     1.293   1_556 A
O43    C51     1.284   1_565 A
O44    C51     1.296   .     A
O44    Yb40    2.132   1_545 S
O45    C55     1.254   .     A
O45    Yb40    2.135   1_545 S
O46    C55     1.278   .     A
O46    Yb41    2.227   1_554 S
O47    C57     1.290   .     A
O48    Yb40    2.113   1_556 S
O48    C57     1.298   1_556 A
O49    C58     1.279   1_545 A
O50    C58     1.264   .     A
O50    Yb41    2.138   1_565 S
C51    C84     1.492   .     S
C51    O43     1.284   1_545 A
O52    C59     1.284   .     A
O52    Yb40    2.179   1_556 S
O53    C59     1.274   .     A
O53    Yb41    2.178   1_565 S
C55    C159    1.464   .     S
O56    Yb41    2.098   1_554 S
O56    C42     1.293   1_554 A
C57    C132    1.490   .     S
C57    O48     1.298   1_554 A
C58    C87     1.480   .     S
C58    O49     1.279   1_565 A
C59    C144    1.476   .     S
C60    C61     1.419   .     A
C60    C65     1.409   .     A
C61    C62     1.404   .     A
C61    N68     1.442   .     S
C62    C63     1.405   .     A
C62    H71     1.084   .     S
C63    C64     1.397   .     A
C64    C65     1.397   .     A
C64    H69     1.086   .     S
C65    H70     1.085   .     S
O66    N68     1.304   .     A
O67    N68     1.304   .     A
C72    C77     1.404   .     A
C72    C73     1.422   1_655 A
C73    C74     1.411   .     A
C73    N80     1.437   .     S
C73    C72     1.422   1_455 A
C74    C75     1.405   .     A
C74    H83     1.085   .     S
C75    C76     1.404   1_455 A
C76    C77     1.386   .     A
C76    H81     1.085   .     S
C76    C75     1.404   1_655 A
C77    H82     1.084   .     S
O78    N80     1.306   .     A
O79    N80     1.300   .     A
C84    C89     1.410   .     A
C84    C85     1.418   1_545 A
C85    C86     1.398   .     A
C85    N92     1.428   .     S
C85    C84     1.418   1_565 A
C86    C87     1.401   .     A
C86    H95     1.085   .     S
C87    C88     1.405   1_565 A
C88    C89     1.408   .     A
C88    H93     1.083   .     S
C88    C87     1.405   1_545 A
C89    H94     1.082   .     S
O90    N92     1.302   .     A
O91    N92     1.302   .     A
C96    C97     1.419   .     A
C96    C101    1.405   1_554 A
C97    C98     1.414   .     A
C97    N104    1.447   .     S
C98    C99     1.407   .     A
C98    H107    1.081   .     S
C99    C100    1.396   1_554 A
C100   C101    1.386   .     A
C100   H105    1.081   .     S
C100   C99     1.396   1_556 A
C101   H106    1.084   .     S
C101   C96     1.405   1_556 A
O102   N104    1.303   .     A
O103   N104    1.300   .     A
C108   C109    1.418   .     A
C108   C113    1.405   1_554 A
C109   C110    1.402   .     A
C109   N116    1.439   .     S
C110   H119    1.080   .     S
C110   C111    1.400   1_554 A
C111   C112    1.399   .     A
C111   C110    1.400   1_556 A
C112   C113    1.397   .     A
C112   H117    1.087   .     S
C113   H118    1.085   .     S
C113   C108    1.405   1_556 A
O114   N116    1.299   .     A
O115   N116    1.300   .     A
C120   C121    1.420   .     A
C120   C125    1.401   1_556 A
C121   C122    1.406   .     A
C121   N128    1.436   .     S
C122   C123    1.405   .     A
C122   H131    1.084   .     S
C123   C124    1.403   1_556 A
C124   C125    1.401   .     A
C124   H129    1.085   .     S
C124   C123    1.403   1_554 A
C125   H130    1.083   .     S
C125   C120    1.401   1_554 A
O126   N128    1.299   .     A
O127   N128    1.300   .     A
C132   C133    1.422   .     A
C132   C137    1.411   .     A
C133   N140    1.436   .     S
C133   C134    1.408   1_554 A
C134   C135    1.406   .     A
C134   H143    1.084   .     S
C134   C133    1.408   1_556 A
C135   C136    1.404   .     A
C136   C137    1.392   1_556 A
C136   H141    1.085   1_556 S
C137   H142    1.085   .     S
C137   C136    1.392   1_554 A
O138   N140    1.303   1_556 A
O139   N140    1.302   .     A
N140   O138    1.303   1_554 A
H141   C136    1.085   1_554 S
C144   C145    1.416   .     A
C144   C149    1.404   .     A
C145   C146    1.405   .     A
C145   N152    1.430   .     S
C146   C147    1.398   .     A
C146   H155    1.084   .     S
C147   C148    1.398   .     A
C147   C15     1.466   1_556 S
C148   C149    1.393   .     A
C148   H153    1.084   1_556 S
C149   H154    1.085   1_556 S
O150   N152    1.302   .     A
O151   N152    1.303   .     A
H153   C148    1.084   1_554 S
H154   C149    1.085   1_554 S
C156   C157    1.416   .     A
C156   C161    1.404   1_554 A
C157   C158    1.403   .     A
C157   N164    1.442   .     S
C158   C159    1.403   .     A
C158   H167    1.085   .     S
C159   C160    1.398   1_554 A
C160   C161    1.396   .     A
C160   H165    1.086   .     S
C160   C159    1.398   1_556 A
C161   H166    1.083   .     S
C161   C156    1.404   1_556 A
O162   N164    1.300   .     A
O163   N164    1.304   .     A
