data_kag+N106+E15
_audit_creation_date              2025-01-21
_audit_creation_method            'Materials Studio'
_symmetry_space_group_name_H-M    'P1'
_symmetry_Int_Tables_number       1
_symmetry_cell_setting            triclinic
loop_
_symmetry_equiv_pos_as_xyz
  x,y,z
_cell_length_a                    23.4350
_cell_length_b                    25.7631
_cell_length_c                    9.6078
_cell_angle_alpha                 90.6977
_cell_angle_beta                  78.3946
_cell_angle_gamma                 130.5412
loop_
_atom_site_label
_atom_site_type_symbol
_atom_site_fract_x
_atom_site_fract_y
_atom_site_fract_z
_atom_site_U_iso_or_equiv
_atom_site_adp_type
_atom_site_occupancy
Y0     Y     0.53488   0.57276  -0.00942   0.00000  Uiso   1.00
Y1     Y     0.45488   0.41186   1.04201   0.00000  Uiso   1.00
O2     O     0.63271   0.57587  -0.11437   0.00000  Uiso   1.00
O3     O     0.50581   0.49233   0.85501   0.00000  Uiso   1.00
C4     C     0.41246   0.29279   1.15236   0.00000  Uiso   1.00
O5     O     0.45822   0.39257   0.80759   0.00000  Uiso   1.00
O6     O     0.57850   0.68156  -0.03139   0.00000  Uiso   1.00
O7     O     0.49624   0.60981   0.85705   0.00000  Uiso   1.00
O8     O     0.58282   0.47881   1.02573   0.00000  Uiso   1.00
O9     O     0.47521   0.49188   0.18601   0.00000  Uiso   1.00
O10    O     0.58929   0.59126   0.17316   0.00000  Uiso   1.00
O11    O     0.40701   0.50604   0.09243   0.00000  Uiso   1.00
C12    C     0.63942   0.53481   0.93799   0.00000  Uiso   1.00
O13    O     0.35303   0.40173   1.03242   0.00000  Uiso   1.00
C14    C     0.49373   0.45132   0.75298   0.00000  Uiso   1.00
O15    O     0.45222   0.32403   1.02632   0.00000  Uiso   1.00
O16    O     0.39123   0.32175   0.22321   0.00000  Uiso   1.00
C17    C     0.53396   0.66903  -0.10837   0.00000  Uiso   1.00
C18    C     0.35423   0.45183   0.04736   0.00000  Uiso   1.00
C19    C     0.53925   0.53349   0.24306   0.00000  Uiso   1.00
Y20    Y     0.94194   0.50941  -0.01792   0.00000  Uiso   1.00
Y21    Y     0.07226   0.49883   0.95788   0.00000  Uiso   1.00
O22    O     0.05056   0.62038  -0.03283   0.00000  Uiso   1.00
O23    O     1.04975   0.54844   0.81667   0.00000  Uiso   1.00
C24    C     0.18451   0.49392   0.95206   0.00000  Uiso   1.00
O25    O     0.05049   0.47223   0.73305   0.00000  Uiso   1.00
O26    O     0.83341   0.49497   0.03516   0.00000  Uiso   1.00
O27    O     0.91224   0.55089   0.83313   0.00000  Uiso   1.00
O28    O     0.13040   0.60609   1.01539   0.00000  Uiso   1.00
O29    O    -0.02804   0.47033   0.14085   0.00000  Uiso   1.00
O30    O     0.95237   0.53949   0.19967   0.00000  Uiso   1.00
O31    O     0.87984   0.39778  -0.04760   0.00000  Uiso   1.00
C32    C     0.11267   0.64333   1.00141   0.00000  Uiso   1.00
O33    O     0.96269   0.38693   0.99833   0.00000  Uiso   1.00
C34    C     0.04074   0.51149   0.70793   0.00000  Uiso   1.00
O35    O     0.18445   0.52423   0.85042   0.00000  Uiso   1.00
O36    O     0.12794   0.46824   0.06005   0.00000  Uiso   1.00
C37    C     0.85018   0.52964  -0.08130   0.00000  Uiso   1.00
C38    C     0.89696   0.36099  -0.02277   0.00000  Uiso   1.00
C39    C    -0.02427   0.51286   0.23632   0.00000  Uiso   1.00
Y40    Y     0.46717   0.03659   1.08475   0.00000  Uiso   1.00
Y41    Y     0.52097   0.95108   0.02040   0.00000  Uiso   1.00
O42    O     0.35242   0.92836   1.12519   0.00000  Uiso   1.00
O43    O     0.46030  -0.04001   0.22257   0.00000  Uiso   1.00
C44    C     0.52226   0.85290  -0.07059   0.00000  Uiso   1.00
O45    O     0.55922   0.97057   0.22307   0.00000  Uiso   1.00
O46    O     0.45213   0.11199   1.04502   0.00000  Uiso   1.00
O47    O     0.42882   0.07523   0.26026   0.00000  Uiso   1.00
O48    O     0.39896   0.88511  -0.00625   0.00000  Uiso   1.00
O49    O     0.53767   1.03477   0.89399   0.00000  Uiso   1.00
O50    O     0.43829   0.01551   0.86364   0.00000  Uiso   1.00
O51    O     0.59605   0.11374   1.08016   0.00000  Uiso   1.00
C52    C     0.34245   0.88058   0.05965   0.00000  Uiso   1.00
O53    O     0.63717   0.06050  -0.02510   0.00000  Uiso   1.00
C54    C     0.51667  -0.02140   0.29067   0.00000  Uiso   1.00
O55    O     0.47036   0.84177   0.02975   0.00000  Uiso   1.00
O56    O     0.57781   0.91635   0.88029   0.00000  Uiso   1.00
C57    C     0.43034   0.11300   1.17480   0.00000  Uiso   1.00
C58    C     0.65062   0.11368   1.02203   0.00000  Uiso   1.00
C59    C     0.49201   1.01940   0.80486   0.00000  Uiso   1.00
N60    N     0.60406   0.52915   0.54357   0.00000  Uiso   1.00
N61    N     0.61623   0.55102   0.40873   0.00000  Uiso   1.00
C62    C     0.54728   0.51445   0.37625   0.00000  Uiso   1.00
C63    C     0.48819   0.46603   0.49511   0.00000  Uiso   1.00
C64    C     0.52728   0.47779   0.59909   0.00000  Uiso   1.00
H65    H     0.42611   0.43253   0.50827   0.00000  Uiso   1.00
H66    H     0.64758   0.55106   0.59803   0.00000  Uiso   1.00
H67    H     0.67080   0.59224   0.34216   0.00000  Uiso   1.00
N68    N     1.01878   0.58184   0.42948   0.00000  Uiso   1.00
N69    N     1.03490   0.58108   0.55224   0.00000  Uiso   1.00
C70    C     1.02818   0.52583   0.57520   0.00000  Uiso   1.00
C71    C     0.00860   0.48994   0.45822   0.00000  Uiso   1.00
C72    C     1.00246   0.52755   0.36887   0.00000  Uiso   1.00
H73    H    -0.00208   0.44277   0.44310   0.00000  Uiso   1.00
H74    H     1.01978   0.61961   0.38746   0.00000  Uiso   1.00
H75    H     1.04957   0.61791   0.61985   0.00000  Uiso   1.00
N76    N     0.59083   0.05035   0.59239   0.00000  Uiso   1.00
N77    N     0.59791   0.04124   0.45738   0.00000  Uiso   1.00
C78    C     0.52839   0.00477   0.42760   0.00000  Uiso   1.00
C79    C     0.47393   0.99060   0.54955   0.00000  Uiso   1.00
C80    C     0.51680   0.02019   0.65211   0.00000  Uiso   1.00
H81    H     0.41215   0.95936   0.56429   0.00000  Uiso   1.00
H82    H     0.63613   0.07590   0.64332   0.00000  Uiso   1.00
H83    H     0.64959   0.05839   0.38814   0.00000  Uiso   1.00
N84    N     0.29108   0.49958   0.81585   0.00000  Uiso   1.00
N85    N     0.32799   0.47941   0.83998   0.00000  Uiso   1.00
C86    C     0.30612   0.45596   0.98159   0.00000  Uiso   1.00
C87    C     0.25096   0.45937   0.05086   0.00000  Uiso   1.00
C88    C     0.24194   0.48601   0.94095   0.00000  Uiso   1.00
H89    H     0.22399   0.44734   0.16496   0.00000  Uiso   1.00
H90    H     0.29642   0.51882   0.71457   0.00000  Uiso   1.00
H91    H     0.37164   0.48642   0.76275   0.00000  Uiso   1.00
N92    N     0.79215   0.17997  -0.01935   0.00000  Uiso   1.00
N93    N     0.85671   0.24489  -0.03095   0.00000  Uiso   1.00
C94    C     0.83904   0.28542  -0.01695   0.00000  Uiso   1.00
C95    C     0.75934   0.24429   1.00618   0.00000  Uiso   1.00
C96    C     0.73186   0.17764   0.00427   0.00000  Uiso   1.00
H97    H     0.72618   0.26044   1.02243   0.00000  Uiso   1.00
H98    H     0.78965   0.13808  -0.02658   0.00000  Uiso   1.00
H99    H     0.91192   0.26095  -0.04887   0.00000  Uiso   1.00
N100   N     0.77431   0.59774  -0.21309   0.00000  Uiso   1.00
N101   N     0.82881   0.59438  -0.22031   0.00000  Uiso   1.00
C102   C     0.80411   0.54592  -0.11260   0.00000  Uiso   1.00
C103   C     0.73045   0.51633   0.96545   0.00000  Uiso   1.00
C104   C     0.71342   0.55025  -0.10215   0.00000  Uiso   1.00
H105   H     0.69453   0.47614   1.05882   0.00000  Uiso   1.00
H106   H     0.77792   0.63018  -0.28552   0.00000  Uiso   1.00
H107   H     0.88307   0.62651  -0.29499   0.00000  Uiso   1.00
N108   N     0.14136   0.75055   1.06646   0.00000  Uiso   1.00
N109   N     0.20152   0.81286   1.08498   0.00000  Uiso   1.00
C110   C     0.26384   0.81811   1.05726   0.00000  Uiso   1.00
C111   C     0.24255   0.75644   0.02081   0.00000  Uiso   1.00
C112   C     0.16442   0.71509   1.02782   0.00000  Uiso   1.00
H113   H     0.27887   0.74377  -0.00788   0.00000  Uiso   1.00
H114   H     0.08543   0.73261   1.08148   0.00000  Uiso   1.00
H115   H     0.19977   0.85102   1.11449   0.00000  Uiso   1.00
N116   N     0.44791   0.68805  -0.15142   0.00000  Uiso   1.00
N117   N     0.44550   0.73770  -0.14141   0.00000  Uiso   1.00
C118   C     0.51401   0.79574  -0.12497   0.00000  Uiso   1.00
C119   C     0.56268   0.78276  -0.12315   0.00000  Uiso   1.00
C120   C     0.51837   0.71368  -0.13951   0.00000  Uiso   1.00
H121   H     0.61791   0.81577  -0.09526   0.00000  Uiso   1.00
H122   H     0.39805   0.63582  -0.14611   0.00000  Uiso   1.00
H123   H     0.39535   0.73017  -0.13344   0.00000  Uiso   1.00
N124   N     0.38499   0.15894   1.35299   0.00000  Uiso   1.00
N125   N     0.37793   0.20588   1.34678   0.00000  Uiso   1.00
C126   C     0.39782   0.23142   1.20725   0.00000  Uiso   1.00
C127   C     0.41791   0.19965   1.12184   0.00000  Uiso   1.00
C128   C     0.40968   0.15467   1.21753   0.00000  Uiso   1.00
H129   H     0.43972   0.21054   1.00587   0.00000  Uiso   1.00
H130   H     0.37506   0.13198   1.44807   0.00000  Uiso   1.00
H131   H     0.36267   0.22171   1.43640   0.00000  Uiso   1.00
loop_
_geom_bond_atom_site_label_1
_geom_bond_atom_site_label_2
_geom_bond_distance
_geom_bond_site_symmetry_2
_ccdc_geom_bond_type
Y0     O2      2.261   .     S
Y0     O6      2.269   .     S
Y0     O9      2.253   .     S
Y0     O10     2.240   .     S
Y0     O11     2.249   .     S
Y0     O3      2.216   1_554 S
Y0     O7      2.235   1_554 S
Y1     O3      2.228   .     S
Y1     O5      2.297   .     S
Y1     O8      2.255   .     S
Y1     O13     2.248   .     S
Y1     O15     2.227   .     S
Y1     O9      2.304   1_556 S
Y1     O16     2.280   1_556 S
O2     C12     1.288   1_554 A
O3     C14     1.362   .     S
O3     Y0      2.216   1_556 S
C4     O15     1.256   .     A
C4     C126    1.462   .     S
C4     O16     1.265   1_556 A
O5     C14     1.210   .     D
O6     C17     1.268   .     A
O7     Y0      2.235   1_556 S
O7     C17     1.254   1_556 A
O8     C12     1.282   .     A
O9     C19     1.388   .     S
O9     Y1      2.304   1_554 S
O10    C19     1.216   .     D
O11    C18     1.274   .     A
C12    O2      1.288   1_556 A
C12    C104    1.467   1_556 S
O13    C18     1.280   1_556 A
C14    C64     1.459   .     S
O16    Y1      2.280   1_554 S
O16    C4      1.265   1_554 A
C17    C120    1.465   .     S
C17    O7      1.254   1_554 A
C18    O13     1.280   1_554 A
C18    C86     1.458   1_554 S
C19    C62     1.465   .     S
Y20    O26     2.263   .     S
Y20    O30     2.225   .     S
Y20    O31     2.275   .     S
Y20    O22     2.253   1_655 S
Y20    O23     2.245   1_554 S
Y20    O27     2.254   1_554 S
Y20    O29     2.286   1_655 S
Y21    O25     2.313   .     S
Y21    O28     2.273   .     S
Y21    O35     2.257   .     S
Y21    O23     2.227   1_455 S
Y21    O29     2.298   1_556 S
Y21    O33     2.249   1_455 S
Y21    O36     2.271   1_556 S
O22    Y20     2.253   1_455 S
O22    C32     1.283   1_554 A
O23    Y20     2.245   1_556 S
O23    Y21     2.227   1_655 S
O23    C34     1.359   1_655 S
C24    O35     1.258   .     A
C24    C88     1.471   .     S
C24    O36     1.263   1_556 A
O25    C34     1.209   .     D
O26    C37     1.263   .     A
O27    Y20     2.254   1_556 S
O27    C37     1.259   1_556 A
O28    C32     1.287   .     A
O29    C39     1.390   .     S
O29    Y20     2.286   1_455 S
O29    Y21     2.298   1_554 S
O30    C39     1.211   1_655 D
O31    C38     1.286   .     A
C32    C112    1.467   .     S
C32    O22     1.283   1_556 A
O33    Y21     2.249   1_655 S
O33    C38     1.282   1_556 A
C34    O23     1.359   1_455 S
C34    C70     1.467   1_455 S
O36    Y21     2.271   1_554 S
O36    C24     1.263   1_554 A
C37    C102    1.468   .     S
C37    O27     1.259   1_554 A
C38    C94     1.474   .     S
C38    O33     1.282   1_554 A
C39    O30     1.211   1_455 D
C39    C72     1.469   1_455 S
Y40    O46     2.237   .     S
Y40    O50     2.311   .     S
Y40    O51     2.285   .     S
Y40    O42     2.240   1_545 S
Y40    O43     2.289   1_556 S
Y40    O47     2.270   1_556 S
Y40    O49     2.230   1_545 S
Y41    O45     2.223   .     S
Y41    O48     2.258   .     S
Y41    O55     2.229   .     S
Y41    O43     2.269   1_565 S
Y41    O49     2.248   1_554 S
Y41    O53     2.264   1_565 S
Y41    O56     2.277   1_554 S
O42    Y40     2.240   1_565 S
O42    C52     1.278   1_556 A
O43    C54     1.386   .     S
O43    Y40     2.289   1_554 S
O43    Y41     2.269   1_545 S
C44    O55     1.254   .     A
C44    C118    1.460   .     S
C44    O56     1.263   1_554 A
O45    C54     1.210   1_565 D
O46    C57     1.256   .     A
O47    Y40     2.270   1_554 S
O47    C57     1.259   1_554 A
O48    C52     1.277   .     A
O49    C59     1.358   .     S
O49    Y40     2.230   1_565 S
O49    Y41     2.248   1_556 S
O50    C59     1.210   1_545 D
O51    C58     1.289   .     A
C52    O42     1.278   1_554 A
C52    C110    1.465   1_554 S
O53    Y41     2.264   1_545 S
O53    C58     1.289   1_554 A
C54    C78     1.464   .     S
C54    O45     1.210   1_545 D
O56    Y41     2.277   1_556 S
O56    C44     1.263   1_556 A
C57    C128    1.463   .     S
C57    O47     1.259   1_556 A
C58    O53     1.289   1_556 A
C58    C96     1.472   1_556 S
C59    O50     1.210   1_565 D
C59    C80     1.461   1_565 S
N60    N61     1.318   .     A
N60    C64     1.345   .     A
N60    H66     1.045   .     S
N61    C62     1.347   .     A
N61    H67     1.046   .     S
C62    C63     1.390   .     A
C63    C64     1.389   .     A
C63    H65     1.083   .     S
N68    N69     1.313   .     A
N68    C72     1.348   .     A
N68    H74     1.042   .     S
N69    C70     1.342   .     A
N69    H75     1.045   .     S
C70    C71     1.400   1_655 A
C70    C34     1.467   1_655 S
C71    H73     1.084   .     S
C71    C70     1.400   1_455 A
C71    C72     1.396   1_455 A
C72    C71     1.396   1_655 A
C72    C39     1.469   1_655 S
N76    N77     1.312   .     A
N76    C80     1.342   .     A
N76    H82     1.045   .     S
N77    C78     1.345   .     A
N77    H83     1.045   .     S
C78    C79     1.392   1_545 A
C79    H81     1.082   .     S
C79    C78     1.392   1_565 A
C79    C80     1.395   1_565 A
C80    C79     1.395   1_545 A
C80    C59     1.461   1_545 S
N84    N85     1.319   .     A
N84    C88     1.350   .     A
N84    H90     1.044   .     S
N85    C86     1.347   .     A
N85    H91     1.043   .     S
C86    C87     1.386   1_556 A
C86    C18     1.458   1_556 S
C87    H89     1.083   .     S
C87    C86     1.386   1_554 A
C87    C88     1.388   1_554 A
C88    C87     1.388   1_556 A
N92    N93     1.321   .     A
N92    C96     1.346   .     A
N92    H98     1.044   .     S
N93    C94     1.348   .     A
N93    H99     1.044   .     S
C94    C95     1.388   1_554 A
C95    H97     1.082   .     S
C95    C94     1.388   1_556 A
C95    C96     1.389   1_556 A
C96    C95     1.389   1_554 A
C96    C58     1.472   1_554 S
N100   N101    1.323   .     A
N100   C104    1.349   .     A
N100   H106    1.043   .     S
N101   C102    1.347   .     A
N101   H107    1.047   .     S
C102   C103    1.380   1_554 A
C103   H105    1.082   .     S
C103   C102    1.380   1_556 A
C103   C104    1.384   1_556 A
C104   C103    1.384   1_554 A
C104   C12     1.467   1_554 S
N108   N109    1.322   .     A
N108   C112    1.348   .     A
N108   H114    1.044   .     S
N109   C110    1.345   .     A
N109   H115    1.044   .     S
C110   C111    1.386   1_556 A
C110   C52     1.465   1_556 S
C111   H113    1.083   .     S
C111   C110    1.386   1_554 A
C111   C112    1.382   1_554 A
C112   C111    1.382   1_556 A
N116   N117    1.318   .     A
N116   C120    1.354   .     A
N116   H122    1.055   .     S
N117   C118    1.347   .     A
N117   H123    1.045   .     S
C118   C119    1.385   .     A
C119   C120    1.388   .     A
C119   H121    1.083   .     S
N124   N125    1.326   .     A
N124   C128    1.348   .     A
N124   H130    1.045   .     S
N125   C126    1.349   .     A
N125   H131    1.045   .     S
C126   C127    1.376   .     A
C127   C128    1.374   .     A
C127   H129    1.083   .     S
