data_kag+N394+E9
_audit_creation_date              2025-01-21
_audit_creation_method            'Materials Studio'
_symmetry_space_group_name_H-M    'P1'
_symmetry_Int_Tables_number       1
_symmetry_cell_setting            triclinic
loop_
_symmetry_equiv_pos_as_xyz
  x,y,z
_cell_length_a                    39.1757
_cell_length_b                    41.2705
_cell_length_c                    18.3369
_cell_angle_alpha                 95.6145
_cell_angle_beta                  95.7872
_cell_angle_gamma                 114.6617
loop_
_atom_site_label
_atom_site_type_symbol
_atom_site_fract_x
_atom_site_fract_y
_atom_site_fract_z
_atom_site_U_iso_or_equiv
_atom_site_adp_type
_atom_site_occupancy
Pr0    Pr    0.51872   0.54143  -0.02034   0.00000  Uiso   1.00
Pr1    Pr    0.49195   0.46021   1.00921   0.00000  Uiso   1.00
O2     O     0.43742   0.46745   1.02412   0.00000  Uiso   1.00
O3     O     0.45714   0.52653   0.00347   0.00000  Uiso   1.00
O4     O     0.51849   0.58509   0.91298   0.00000  Uiso   1.00
O5     O     0.55007   0.60125   0.02366   0.00000  Uiso   1.00
O6     O     0.52921   0.51459   0.07553   0.00000  Uiso   1.00
O7     O     0.49980   0.54682   0.09486   0.00000  Uiso   1.00
C8     C     0.49863   0.47349   0.86514   0.00000  Uiso   1.00
C9     C     0.43175   0.49607   0.01759   0.00000  Uiso   1.00
C10    C     0.53894   0.61091   0.96534   0.00000  Uiso   1.00
C11    C     0.47419   0.39223   0.03227   0.00000  Uiso   1.00
C12    C     0.57894   0.50557   0.97174   0.00000  Uiso   1.00
C13    C     0.51190   0.52784   0.12340   0.00000  Uiso   1.00
O14    O     0.57338   0.53427  -0.03446   0.00000  Uiso   1.00
O15    O     0.55344   0.47508   0.98539   0.00000  Uiso   1.00
O16    O     0.49500   0.41964   0.08097   0.00000  Uiso   1.00
O17    O     0.46116   0.39941   0.97228   0.00000  Uiso   1.00
O18    O     0.48134   0.48690   0.91278   0.00000  Uiso   1.00
O19    O     0.51072   0.45455   0.89395   0.00000  Uiso   1.00
Pr20   Pr    0.98321   0.45843   1.01060   0.00000  Uiso   1.00
Pr21   Pr    0.02739   0.54174  -0.00651   0.00000  Uiso   1.00
O22    O     0.96487   0.53352  -0.03285   0.00000  Uiso   1.00
O23    O     0.93332   0.47313   0.97781   0.00000  Uiso   1.00
O24    O     0.94638   0.41298   0.06825   0.00000  Uiso   1.00
O25    O     0.95977   0.39915   0.96198   0.00000  Uiso   1.00
O26    O     0.01522   0.48901   0.92513   0.00000  Uiso   1.00
O27    O     0.95653   0.45607   0.88950   0.00000  Uiso   1.00
C28    C     0.02570   0.52384   0.13466   0.00000  Uiso   1.00
C29    C     0.93404   0.50412   0.96637   0.00000  Uiso   1.00
C30    C     0.94180   0.38817   0.01563   0.00000  Uiso   1.00
C31    C     0.06863   0.61189   0.98764   0.00000  Uiso   1.00
C32    C     0.07665   0.49613   0.03700   0.00000  Uiso   1.00
C33    C    -0.01495   0.47642   0.86949   0.00000  Uiso   1.00
O34    O     0.04585   0.46668   1.03619   0.00000  Uiso   1.00
O35    O     0.07731   0.52716   0.02613   0.00000  Uiso   1.00
O36    O     0.06404   0.58697   0.93527   0.00000  Uiso   1.00
O37    O     0.05082   0.60107   0.04158   0.00000  Uiso   1.00
O38    O     0.99547   0.51120   0.07911   0.00000  Uiso   1.00
O39    O     0.05422   0.54409   0.11447   0.00000  Uiso   1.00
Pr40   Pr    0.54711   0.02584  -0.00993   0.00000  Uiso   1.00
Pr41   Pr    0.46099   0.97540   1.00697   0.00000  Uiso   1.00
O42    O     0.46166   0.03202   0.02798   0.00000  Uiso   1.00
O43    O     0.52473   0.06842   0.02241   0.00000  Uiso   1.00
O44    O     0.59226   0.06443   0.93200   0.00000  Uiso   1.00
O45    O     0.60977   0.05386   0.03878   0.00000  Uiso   1.00
O46    O     0.51810   0.99370   0.07651   0.00000  Uiso   1.00
O47    O     0.54646   0.05033   0.10986   0.00000  Uiso   1.00
C48    C     0.47980   0.97984   0.86572   0.00000  Uiso   1.00
C49    C     0.49025   0.06342   0.03086   0.00000  Uiso   1.00
C50    C     0.61939   0.07119   0.98460   0.00000  Uiso   1.00
C51    C     0.38873   0.92995   0.01277   0.00000  Uiso   1.00
C52    C     0.51813   0.93801   0.96786   0.00000  Uiso   1.00
C53    C     0.52811   0.02234   0.13097   0.00000  Uiso   1.00
O54    O     0.54592   0.96910   0.96418   0.00000  Uiso   1.00
O55    O     0.48433   0.93327   0.98055   0.00000  Uiso   1.00
O56    O     0.41583   0.93727   0.06577   0.00000  Uiso   1.00
O57    O     0.39835   0.94677   0.95798   0.00000  Uiso   1.00
O58    O     0.49017   0.00812   0.92103   0.00000  Uiso   1.00
O59    O     0.46089   0.95184   0.88591   0.00000  Uiso   1.00
C60    C     0.50633   0.51007   0.34345   0.00000  Uiso   1.00
N61    N     0.49097   0.53095   0.31451   0.00000  Uiso   1.00
N62    N     0.49239   0.53631   0.24415   0.00000  Uiso   1.00
C63    C     0.50921   0.52096   0.20010   0.00000  Uiso   1.00
N64    N     0.52441   0.49994   0.22882   0.00000  Uiso   1.00
N65    N     0.52298   0.49458   0.29920   0.00000  Uiso   1.00
C66    C     0.50544   0.50478   0.42163   0.00000  Uiso   1.00
N67    N     0.52127   0.48434   0.45099   0.00000  Uiso   1.00
N68    N     0.52077   0.47985   0.52196   0.00000  Uiso   1.00
C69    C     0.50446   0.49568   0.56631   0.00000  Uiso   1.00
N70    N     0.48862   0.51611   0.53694   0.00000  Uiso   1.00
N71    N     0.48912   0.52060   0.46598   0.00000  Uiso   1.00
C72    C     0.50368   0.49053   0.64458   0.00000  Uiso   1.00
N73    N     0.48705   0.50608   0.68875   0.00000  Uiso   1.00
N74    N     0.48580   0.50094   0.75927   0.00000  Uiso   1.00
C75    C     0.50116   0.48009   0.78824   0.00000  Uiso   1.00
N76    N     0.51794   0.46466   0.74427   0.00000  Uiso   1.00
N77    N     0.51919   0.46980   0.67376   0.00000  Uiso   1.00
C78    C    -0.00427   0.49421   0.65150   0.00000  Uiso   1.00
N79    N     0.96143   0.47258   0.66888   0.00000  Uiso   1.00
N80    N     0.95759   0.46765   0.73888   0.00000  Uiso   1.00
C81    C    -0.01208   0.48429   0.79383   0.00000  Uiso   1.00
N82    N     0.02206   0.50623   0.77661   0.00000  Uiso   1.00
N83    N     0.02590   0.51117   0.70669   0.00000  Uiso   1.00
C84    C     0.00060   0.49800   0.57406   0.00000  Uiso   1.00
N85    N     0.03529   0.51850   0.55676   0.00000  Uiso   1.00
N86    N     0.03999   0.52123   0.48631   0.00000  Uiso   1.00
C87    C     0.01019   0.50341   0.43066   0.00000  Uiso   1.00
N88    N    -0.02450   0.48293   0.44797   0.00000  Uiso   1.00
N89    N    -0.02921   0.48021   0.51841   0.00000  Uiso   1.00
C90    C     0.01505   0.50699   0.35315   0.00000  Uiso   1.00
N91    N     0.98485   0.48998   0.29806   0.00000  Uiso   1.00
N92    N     0.98868   0.49459   0.22800   0.00000  Uiso   1.00
C93    C     0.02286   0.51624   0.21051   0.00000  Uiso   1.00
N94    N     0.05323   0.53296   0.26538   0.00000  Uiso   1.00
N95    N     0.04940   0.52835   0.33553   0.00000  Uiso   1.00
C96    C     0.51054   1.01091   0.34925   0.00000  Uiso   1.00
N97    N     0.52984   0.04419   0.33095   0.00000  Uiso   1.00
N98    N     0.53463   0.04814   0.26086   0.00000  Uiso   1.00
C99    C     0.52016   0.01893   0.20674   0.00000  Uiso   1.00
N100   N     0.50057   0.98575   0.22491   0.00000  Uiso   1.00
N101   N     0.49576   0.98181   0.29488   0.00000  Uiso   1.00
C102   C     0.50678   1.00615   0.42677   0.00000  Uiso   1.00
N103   N     0.48828   0.97267   0.44467   0.00000  Uiso   1.00
N104   N     0.48547   0.96814   0.51510   0.00000  Uiso   1.00
C105   C     0.50119   0.99692   0.57023   0.00000  Uiso   1.00
N106   N     0.51969   0.03042   0.55234   0.00000  Uiso   1.00
N107   N     0.52250   0.03495   0.48189   0.00000  Uiso   1.00
C108   C     0.49743   0.99204   0.64768   0.00000  Uiso   1.00
N109   N     0.51237   0.02100   0.70243   0.00000  Uiso   1.00
N110   N     0.50756   0.01683   0.77233   0.00000  Uiso   1.00
C111   C     0.48776  -0.01642   0.79003   0.00000  Uiso   1.00
N112   N     0.47312   0.95453   0.73551   0.00000  Uiso   1.00
N113   N     0.47794   0.95870   0.66554   0.00000  Uiso   1.00
C114   C     0.32584   0.49304   0.04536   0.00000  Uiso   1.00
N115   N     0.35518   0.52413   0.03660   0.00000  Uiso   1.00
N116   N     0.38884   0.52494   0.02813   0.00000  Uiso   1.00
C117   C     0.39453   0.49471   0.02825   0.00000  Uiso   1.00
N118   N     0.36525   0.46354   1.03738   0.00000  Uiso   1.00
N119   N     0.33145   0.46270   1.04564   0.00000  Uiso   1.00
C120   C     0.28863   0.49260   0.05242   0.00000  Uiso   1.00
N121   N     0.25763   0.46140   1.05448   0.00000  Uiso   1.00
N122   N     0.22376   0.46141   1.05790   0.00000  Uiso   1.00
C123   C     0.21979   0.49265   0.05960   0.00000  Uiso   1.00
N124   N     0.25086   0.52376   0.05812   0.00000  Uiso   1.00
N125   N     0.28459   0.52374   0.05458   0.00000  Uiso   1.00
C126   C     0.18249   0.49314   0.05926   0.00000  Uiso   1.00
N127   N     0.17970   0.52475   0.05797   0.00000  Uiso   1.00
N128   N     0.14599   0.52558   0.05298   0.00000  Uiso   1.00
C129   C     0.11369   0.49487   0.04932   0.00000  Uiso   1.00
N130   N     0.11640   0.46318   1.05147   0.00000  Uiso   1.00
N131   N     0.15025   0.46234   1.05639   0.00000  Uiso   1.00
C132   C     0.86100   0.28226   1.00818   0.00000  Uiso   1.00
N133   N     0.87384   0.30563   0.07294   0.00000  Uiso   1.00
N134   N     0.90063   0.33910   0.07602   0.00000  Uiso   1.00
C135   C     0.91584   0.35026   0.01465   0.00000  Uiso   1.00
N136   N     0.90355   0.32669   0.95024   0.00000  Uiso   1.00
N137   N     0.87651   0.29333   0.94698   0.00000  Uiso   1.00
C138   C     0.82861   0.24687   1.00304   0.00000  Uiso   1.00
N139   N     0.80853   0.22803   0.93595   0.00000  Uiso   1.00
N140   N     0.77700   0.19757   0.93140   0.00000  Uiso   1.00
C141   C     0.76459   0.18468   0.99379   0.00000  Uiso   1.00
N142   N     0.78503   0.20320   0.06083   0.00000  Uiso   1.00
N143   N     0.81636   0.23382   0.06539   0.00000  Uiso   1.00
C144   C     0.72818   0.15290   0.98930   0.00000  Uiso   1.00
N145   N     0.71820   0.13731   0.05042   0.00000  Uiso   1.00
N146   N     0.68393   0.11036   0.04807   0.00000  Uiso   1.00
C147   C     0.65829   0.09821   0.98468   0.00000  Uiso   1.00
N148   N     0.66834   0.11357   0.92334   0.00000  Uiso   1.00
N149   N     0.70274   0.14034   0.92553   0.00000  Uiso   1.00
C150   C     0.82839   0.50747   0.93968   0.00000  Uiso   1.00
N151   N     0.83099   0.47585  -0.05737   0.00000  Uiso   1.00
N152   N     0.86464   0.47488  -0.05074   0.00000  Uiso   1.00
C153   C     0.89708   0.50546   0.95301   0.00000  Uiso   1.00
N154   N     0.89458   0.53715   0.94925   0.00000  Uiso   1.00
N155   N     0.86079   0.53814   0.94271   0.00000  Uiso   1.00
C156   C     0.79111   0.50815   0.93729   0.00000  Uiso   1.00
N157   N     0.78739   0.53948   0.93811   0.00000  Uiso   1.00
N158   N     0.75348   0.53968   0.93980   0.00000  Uiso   1.00
C159   C     0.72221   0.50856   0.94089   0.00000  Uiso   1.00
N160   N     0.72601   0.47733  -0.06044   0.00000  Uiso   1.00
N161   N     0.75977   0.47713  -0.06223   0.00000  Uiso   1.00
C162   C     0.68495   0.50827   0.94639   0.00000  Uiso   1.00
N163   N     0.65531   0.47718  -0.04593   0.00000  Uiso   1.00
N164   N     0.62162   0.47648  -0.03842   0.00000  Uiso   1.00
C165   C     0.61616   0.50684   0.96155   0.00000  Uiso   1.00
N166   N     0.64573   0.53802   0.95342   0.00000  Uiso   1.00
N167   N     0.67958   0.53874   0.94612   0.00000  Uiso   1.00
C168   C     0.28031   0.84792   1.00915   0.00000  Uiso   1.00
N169   N     0.29022   0.86303   0.94749   0.00000  Uiso   1.00
N170   N     0.32437   0.89011   0.94944   0.00000  Uiso   1.00
C171   C     0.34992   0.90286   0.01298   0.00000  Uiso   1.00
N172   N     0.33993   0.88799   0.07483   0.00000  Uiso   1.00
N173   N     0.30566   0.86109   0.07304   0.00000  Uiso   1.00
C174   C     0.24413   0.81597   1.00524   0.00000  Uiso   1.00
N175   N     0.23194   0.80337   0.06799   0.00000  Uiso   1.00
N176   N     0.20069   0.77273   0.06407   0.00000  Uiso   1.00
C177   C     0.18069   0.75343   0.99727   0.00000  Uiso   1.00
N178   N     0.19271   0.76618   0.93455   0.00000  Uiso   1.00
N179   N     0.22376   0.79699   0.93847   0.00000  Uiso   1.00
C180   C     0.14864   0.71790   0.99292   0.00000  Uiso   1.00
N181   N     0.13592   0.69422   0.92861   0.00000  Uiso   1.00
N182   N     0.10941   0.66069   0.92624   0.00000  Uiso   1.00
C183   C     0.09438   0.64978   0.98792   0.00000  Uiso   1.00
N184   N     0.10657   0.67364   0.05189   0.00000  Uiso   1.00
N185   N     0.13333   0.70706   0.05443   0.00000  Uiso   1.00
C186   C     0.53915   0.84654   0.95699   0.00000  Uiso   1.00
N187   N     0.55834   0.87360   0.91920   0.00000  Uiso   1.00
N188   N     0.55175   0.90292   0.92185   0.00000  Uiso   1.00
C189   C     0.52519   0.90570   0.96109   0.00000  Uiso   1.00
N190   N     0.50581   0.87842  -0.00211   0.00000  Uiso   1.00
N191   N     0.51286   0.84954  -0.00365   0.00000  Uiso   1.00
C192   C     0.54662   0.81460   0.95753   0.00000  Uiso   1.00
N193   N     0.54344   0.79855   0.01919   0.00000  Uiso   1.00
N194   N     0.54743   0.76811   0.01955   0.00000  Uiso   1.00
C195   C     0.55413   0.75219   0.95786   0.00000  Uiso   1.00
N196   N     0.55741   0.76823   0.89596   0.00000  Uiso   1.00
N197   N     0.55403   0.79912   0.89599   0.00000  Uiso   1.00
C198   C     0.55476   0.71688   0.95769   0.00000  Uiso   1.00
N199   N     0.54437   0.69302   0.89395   0.00000  Uiso   1.00
N200   N     0.54041   0.65940   0.89575   0.00000  Uiso   1.00
C201   C     0.54713   0.64867   0.96124   0.00000  Uiso   1.00
N202   N     0.55831   0.67277   0.02460   0.00000  Uiso   1.00
N203   N     0.56181   0.70617   0.02291   0.00000  Uiso   1.00
C204   C     0.46253   0.28898   0.05848   0.00000  Uiso   1.00
N205   N     0.48592   0.31811   0.10921   0.00000  Uiso   1.00
N206   N     0.48843   0.35078   0.10203   0.00000  Uiso   1.00
C207   C     0.46787   0.35560   0.04354   0.00000  Uiso   1.00
N208   N     0.44413   0.32644   0.99306   0.00000  Uiso   1.00
N209   N     0.44138   0.29366   1.00059   0.00000  Uiso   1.00
C210   C     0.46295   0.25381   0.06296   0.00000  Uiso   1.00
N211   N     0.43619   0.22323   1.02010   0.00000  Uiso   1.00
N212   N     0.43852   0.19192   1.02075   0.00000  Uiso   1.00
C213   C     0.46792   0.19021   0.06361   0.00000  Uiso   1.00
N214   N     0.49449   0.22074   0.10670   0.00000  Uiso   1.00
N215   N     0.49193   0.25190   0.10669   0.00000  Uiso   1.00
C216   C     0.47274   0.15670   0.05951   0.00000  Uiso   1.00
N217   N     0.50759   0.15802   0.08023   0.00000  Uiso   1.00
N218   N     0.51296   0.12815   0.07221   0.00000  Uiso   1.00
C219   C     0.48354   0.09575   0.04413   0.00000  Uiso   1.00
N220   N     0.44850   0.09429   1.02440   0.00000  Uiso   1.00
N221   N     0.44323   0.12428   1.03151   0.00000  Uiso   1.00
loop_
_geom_bond_atom_site_label_1
_geom_bond_atom_site_label_2
_geom_bond_distance
_geom_bond_site_symmetry_2
_ccdc_geom_bond_type
Pr0    O3      2.327   .     S
Pr0    O5      2.266   .     S
Pr0    O6      2.259   .     S
Pr0    O7      2.328   .     S
Pr0    O14     2.316   .     S
Pr0    O4      2.277   1_554 S
Pr0    O18     2.250   1_554 S
Pr1    O2      2.316   .     S
Pr1    O15     2.324   .     S
Pr1    O17     2.277   .     S
Pr1    O18     2.265   .     S
Pr1    O19     2.329   .     S
Pr1    O6      2.241   1_556 S
Pr1    O16     2.262   1_556 S
O2     C9      1.304   1_556 A
O3     C9      1.308   .     A
O4     C10     1.277   .     A
O4     Pr0     2.277   1_556 S
O5     C10     1.276   1_554 A
O6     C13     1.366   .     S
O6     Pr1     2.241   1_554 S
O7     C13     1.205   .     D
C8     O18     1.366   .     S
C8     O19     1.206   .     D
C8     C75     1.467   .     S
C9     C117    1.469   .     S
C9     O2      1.304   1_554 A
C10    C201    1.465   .     S
C10    O5      1.276   1_556 A
C11    O16     1.276   .     A
C11    C207    1.466   .     S
C11    O17     1.279   1_554 A
C12    O15     1.307   .     A
C12    C165    1.469   .     S
C12    O14     1.304   1_556 A
C13    C63     1.467   .     S
O14    C12     1.304   1_554 A
O16    Pr1     2.262   1_554 S
O17    C11     1.279   1_556 A
O18    Pr0     2.250   1_556 S
Pr20   O23     2.318   .     S
Pr20   O25     2.271   .     S
Pr20   O27     2.332   .     S
Pr20   O24     2.270   1_556 S
Pr20   O26     2.255   1_655 S
Pr20   O34     2.323   1_655 S
Pr20   O38     2.241   1_556 S
Pr21   O35     2.316   .     S
Pr21   O37     2.270   .     S
Pr21   O39     2.332   .     S
Pr21   O22     2.320   1_455 S
Pr21   O26     2.239   1_554 S
Pr21   O36     2.269   1_554 S
Pr21   O38     2.255   1_455 S
O22    Pr21    2.320   1_655 S
O22    C29     1.304   1_554 A
O23    C29     1.305   .     A
O24    C30     1.277   .     A
O24    Pr20    2.270   1_554 S
O25    C30     1.277   1_556 A
O26    C33     1.360   .     S
O26    Pr20    2.255   1_455 S
O26    Pr21    2.239   1_556 S
O27    C33     1.203   1_655 D
C28    O39     1.204   .     D
C28    C93     1.460   .     S
C28    O38     1.360   1_455 S
C29    C153    1.469   .     S
C29    O22     1.304   1_556 A
C30    C135    1.465   .     S
C30    O25     1.277   1_554 A
C31    O36     1.277   .     A
C31    C183    1.464   .     S
C31    O37     1.277   1_556 A
C32    O35     1.305   .     A
C32    C129    1.469   .     S
C32    O34     1.305   1_554 A
C33    C81     1.460   .     S
C33    O27     1.203   1_455 D
O34    Pr20    2.323   1_455 S
O34    C32     1.305   1_556 A
O36    Pr21    2.269   1_556 S
O37    C31     1.277   1_554 A
O38    Pr20    2.241   1_554 S
O38    Pr21    2.255   1_655 S
O38    C28     1.360   1_655 S
Pr40   O43     2.323   .     S
Pr40   O45     2.269   .     S
Pr40   O47     2.334   .     S
Pr40   O44     2.271   1_554 S
Pr40   O46     2.254   1_545 S
Pr40   O54     2.324   1_544 S
Pr40   O58     2.236   1_554 S
Pr41   O55     2.312   .     S
Pr41   O57     2.270   .     S
Pr41   O59     2.334   .     S
Pr41   O42     2.319   1_566 S
Pr41   O46     2.242   1_556 S
Pr41   O56     2.272   1_556 S
Pr41   O58     2.259   1_565 S
O42    C49     1.304   .     A
O42    Pr41    2.319   1_544 S
O43    C49     1.306   .     A
O44    C50     1.277   .     A
O44    Pr40    2.271   1_556 S
O45    C50     1.277   1_554 A
O46    Pr40    2.254   1_565 S
O46    Pr41    2.242   1_554 S
O46    C53     1.361   1_565 S
O47    C53     1.205   .     D
C48    O59     1.202   .     D
C48    O58     1.359   1_565 S
C48    C111    1.462   1_565 S
C49    C219    1.467   .     S
C50    C147    1.465   .     S
C50    O45     1.277   1_556 A
C51    O56     1.276   .     A
C51    C171    1.465   .     S
C51    O57     1.276   1_554 A
C52    O54     1.305   .     A
C52    O55     1.304   .     A
C52    C189    1.467   .     S
C53    C99     1.462   .     S
C53    O46     1.361   1_545 S
O54    Pr40    2.324   1_566 S
O56    Pr41    2.272   1_554 S
O57    C51     1.276   1_556 A
O58    Pr40    2.236   1_556 S
O58    Pr41    2.259   1_545 S
O58    C48     1.359   1_545 S
C60    N61     1.358   .     A
C60    N65     1.359   .     A
C60    C66     1.473   .     S
N61    N62     1.333   .     A
N62    C63     1.358   .     A
C63    N64     1.357   .     A
N64    N65     1.333   .     A
C66    N67     1.358   .     A
C66    N71     1.358   .     A
N67    N68     1.333   .     A
N68    C69     1.358   .     A
C69    N70     1.358   .     A
C69    C72     1.473   .     S
N70    N71     1.333   .     A
C72    N73     1.359   .     A
C72    N77     1.358   .     A
N73    N74     1.333   .     A
N74    C75     1.357   .     A
C75    N76     1.358   .     A
N76    N77     1.333   .     A
C78    N83     1.357   .     A
C78    C84     1.466   .     S
C78    N79     1.358   1_455 A
N79    N80     1.333   .     A
N79    C78     1.358   1_655 A
N80    C81     1.357   1_655 A
C81    N82     1.356   .     A
C81    N80     1.357   1_455 A
N82    N83     1.331   .     A
C84    N85     1.358   .     A
C84    N89     1.357   .     A
N85    N86     1.332   .     A
N86    C87     1.357   .     A
C87    N88     1.358   .     A
C87    C90     1.466   .     S
N88    N89     1.332   .     A
C90    N95     1.358   .     A
C90    N91     1.357   1_455 A
N91    N92     1.331   .     A
N91    C90     1.357   1_655 A
N92    C93     1.356   1_655 A
C93    N94     1.357   .     A
C93    N92     1.356   1_455 A
N94    N95     1.333   .     A
C96    N101    1.357   .     A
C96    C102    1.467   .     S
C96    N97     1.359   1_565 A
N97    N98     1.333   .     A
N97    C96     1.359   1_545 A
N98    C99     1.357   .     A
C99    N100    1.356   1_545 A
N100   N101    1.331   .     A
N100   C99     1.356   1_565 A
C102   N103    1.358   .     A
C102   N107    1.357   1_565 A
N103   N104    1.332   .     A
N104   C105    1.357   .     A
C105   C108    1.467   .     S
C105   N106    1.358   1_565 A
N106   N107    1.332   .     A
N106   C105    1.358   1_545 A
N107   C102    1.357   1_545 A
C108   N113    1.359   .     A
C108   N109    1.357   1_565 A
N109   N110    1.331   .     A
N109   C108    1.357   1_545 A
N110   C111    1.356   .     A
C111   N112    1.357   1_545 A
C111   C48     1.462   1_545 S
N112   N113    1.333   .     A
N112   C111    1.357   1_565 A
C114   N115    1.357   .     A
C114   C120    1.469   .     S
C114   N119    1.359   1_554 A
N115   N116    1.330   .     A
N116   C117    1.356   .     A
C117   N118    1.359   1_554 A
N118   N119    1.335   .     A
N118   C117    1.359   1_556 A
N119   C114    1.359   1_556 A
C120   N125    1.356   .     A
C120   N121    1.359   1_554 A
N121   N122    1.335   .     A
N121   C120    1.359   1_556 A
N122   C123    1.359   1_556 A
C123   N124    1.356   .     A
C123   C126    1.469   .     S
C123   N122    1.359   1_554 A
N124   N125    1.330   .     A
C126   N127    1.356   .     A
C126   N131    1.359   1_554 A
N127   N128    1.330   .     A
N128   C129    1.356   .     A
C129   N130    1.359   1_554 A
N130   N131    1.335   .     A
N130   C129    1.359   1_556 A
N131   C126    1.359   1_556 A
C132   N137    1.358   .     A
C132   C138    1.468   .     S
C132   N133    1.358   1_556 A
N133   N134    1.332   .     A
N133   C132    1.358   1_554 A
N134   C135    1.357   .     A
C135   N136    1.357   1_554 A
N136   N137    1.332   .     A
N136   C135    1.357   1_556 A
C138   N139    1.358   .     A
C138   N143    1.357   1_556 A
N139   N140    1.333   .     A
N140   C141    1.358   .     A
C141   C144    1.468   .     S
C141   N142    1.358   1_556 A
N142   N143    1.332   .     A
N142   C141    1.358   1_554 A
N143   C138    1.357   1_554 A
C144   N149    1.358   .     A
C144   N145    1.357   1_556 A
N145   N146    1.332   .     A
N145   C144    1.357   1_554 A
N146   C147    1.357   1_554 A
C147   N148    1.357   .     A
C147   N146    1.357   1_556 A
N148   N149    1.333   .     A
C150   N155    1.359   .     A
C150   C156    1.469   .     S
C150   N151    1.356   1_556 A
N151   N152    1.330   .     A
N151   C150    1.356   1_554 A
N152   C153    1.356   1_554 A
C153   N154    1.359   .     A
C153   N152    1.356   1_556 A
N154   N155    1.335   .     A
C156   N157    1.359   .     A
C156   N161    1.356   1_556 A
N157   N158    1.335   .     A
N158   C159    1.359   .     A
C159   C162    1.469   .     S
C159   N160    1.356   1_556 A
N160   N161    1.330   .     A
N160   C159    1.356   1_554 A
N161   C156    1.356   1_554 A
C162   N167    1.359   .     A
C162   N163    1.356   1_556 A
N163   N164    1.330   .     A
N163   C162    1.356   1_554 A
N164   C165    1.356   1_554 A
C165   N166    1.359   .     A
C165   N164    1.356   1_556 A
N166   N167    1.335   .     A
C168   N169    1.357   .     A
C168   C174    1.468   .     S
C168   N173    1.358   1_556 A
N169   N170    1.332   .     A
N170   C171    1.357   1_556 A
C171   N172    1.357   .     A
C171   N170    1.357   1_554 A
N172   N173    1.333   .     A
N173   C168    1.358   1_554 A
C174   N179    1.358   .     A
C174   N175    1.357   1_556 A
N175   N176    1.333   .     A
N175   C174    1.357   1_554 A
N176   C177    1.358   1_554 A
C177   N178    1.357   .     A
C177   C180    1.468   .     S
C177   N176    1.358   1_556 A
N178   N179    1.332   .     A
C180   N181    1.358   .     A
C180   N185    1.358   1_556 A
N181   N182    1.332   .     A
N182   C183    1.357   .     A
C183   N184    1.357   1_556 A
N184   N185    1.332   .     A
N184   C183    1.357   1_554 A
N185   C180    1.358   1_554 A
C186   N187    1.360   .     A
C186   C192    1.465   .     S
C186   N191    1.355   1_556 A
N187   N188    1.336   .     A
N188   C189    1.360   .     A
C189   N190    1.356   1_556 A
N190   N191    1.329   .     A
N190   C189    1.356   1_554 A
N191   C186    1.355   1_554 A
C192   N197    1.359   .     A
C192   N193    1.356   1_556 A
N193   N194    1.330   .     A
N193   C192    1.356   1_554 A
N194   C195    1.356   1_554 A
C195   N196    1.360   .     A
C195   C198    1.467   .     S
C195   N194    1.356   1_556 A
N196   N197    1.335   .     A
C198   N199    1.359   .     A
C198   N203    1.357   1_556 A
N199   N200    1.334   .     A
N200   C201    1.358   .     A
C201   N202    1.356   1_556 A
N202   N203    1.331   .     A
N202   C201    1.356   1_554 A
N203   C198    1.357   1_554 A
C204   N205    1.357   .     A
C204   C210    1.468   .     S
C204   N209    1.359   1_554 A
N205   N206    1.331   .     A
N206   C207    1.356   .     A
C207   N208    1.358   1_554 A
N208   N209    1.334   .     A
N208   C207    1.358   1_556 A
N209   C204    1.359   1_556 A
C210   N215    1.357   .     A
C210   N211    1.358   1_554 A
N211   N212    1.334   .     A
N211   C210    1.358   1_556 A
N212   C213    1.359   1_556 A
C213   N214    1.357   .     A
C213   C216    1.468   .     S
C213   N212    1.359   1_554 A
N214   N215    1.331   .     A
C216   N217    1.357   .     A
C216   N221    1.358   1_554 A
N217   N218    1.331   .     A
N218   C219    1.357   .     A
C219   N220    1.359   1_554 A
N220   N221    1.334   .     A
N220   C219    1.359   1_556 A
N221   C216    1.358   1_556 A
