data_kag+N139+E70
_audit_creation_date              2025-01-21
_audit_creation_method            'Materials Studio'
_symmetry_space_group_name_H-M    'P1'
_symmetry_Int_Tables_number       1
_symmetry_cell_setting            triclinic
loop_
_symmetry_equiv_pos_as_xyz
  x,y,z
_cell_length_a                    24.4943
_cell_length_b                    17.2345
_cell_length_c                    13.1593
_cell_angle_alpha                 100.5623
_cell_angle_beta                  92.3160
_cell_angle_gamma                 119.6516
loop_
_atom_site_label
_atom_site_type_symbol
_atom_site_fract_x
_atom_site_fract_y
_atom_site_fract_z
_atom_site_U_iso_or_equiv
_atom_site_adp_type
_atom_site_occupancy
C0     C     0.58787   0.61062   0.75752   0.00000  Uiso   1.00
Sm1    Sm    0.45424   0.52238   0.19663   0.00000  Uiso   1.00
Sm2    Sm    0.59960   0.56156   0.93162   0.00000  Uiso   1.00
C3     C     0.52843   0.42905   0.07668   0.00000  Uiso   1.00
C4     C     0.71400   0.58814   0.98025   0.00000  Uiso   1.00
O5     O     0.52428   0.63710   0.32499   0.00000  Uiso   1.00
O6     O     0.47386   0.50202   0.35576   0.00000  Uiso   1.00
O7     O     0.52679   0.58594   1.00584   0.00000  Uiso   1.00
O8     O     0.45763   0.60825   0.08246   0.00000  Uiso   1.00
O9     O     0.36270   0.40171   1.11286   0.00000  Uiso   1.00
O10    O     0.36071   0.50766   0.22768   0.00000  Uiso   1.00
O11    O     0.55092   0.52910   0.76873   0.00000  Uiso   1.00
O12    O     0.62848   0.66672   0.83822   0.00000  Uiso   1.00
O13    O     0.53195   0.50108   0.13209   0.00000  Uiso   1.00
O14    O     0.55703   0.43555   0.99668   0.00000  Uiso   1.00
O15    O     0.68878   0.62093   0.04530   0.00000  Uiso   1.00
O16    O     0.68043   0.54418   0.89016   0.00000  Uiso   1.00
C17    C     0.51552   0.58750   0.39063   0.00000  Uiso   1.00
C18    C     0.49625   0.62747   1.01669   0.00000  Uiso   1.00
C19    C     0.32917   0.43209   0.15757   0.00000  Uiso   1.00
C20    C     0.99891   0.50124   0.24583   0.00000  Uiso   1.00
Sm21   Sm    0.96079   0.50142   0.78910   0.00000  Uiso   1.00
Sm22   Sm    0.02512   0.43349   0.07396   0.00000  Uiso   1.00
C23    C     0.08964   0.54123   0.87928   0.00000  Uiso   1.00
C24    C     0.11663   0.39478   0.08323   0.00000  Uiso   1.00
O25    O     0.94830   0.45574   0.61751   0.00000  Uiso   1.00
O26    O    -0.03036   0.59442   0.68708   0.00000  Uiso   1.00
O27    O     0.91875   0.34786   0.00443   0.00000  Uiso   1.00
O28    O     0.94544   0.38176   0.85628   0.00000  Uiso   1.00
O29    O     0.95153   0.57469  -0.06050   0.00000  Uiso   1.00
O30    O     0.86851   0.48941   0.82059   0.00000  Uiso   1.00
O31    O     0.01072   0.53942   0.16862   0.00000  Uiso   1.00
O32    O     1.00181   0.42767   0.23484   0.00000  Uiso   1.00
O33    O     0.06575   0.55189   0.79966   0.00000  Uiso   1.00
O34    O     0.05086   0.49502  -0.06511   0.00000  Uiso   1.00
O35    O     0.06066   0.33766   1.03272   0.00000  Uiso   1.00
O36    O     0.12581   0.47399   0.12810   0.00000  Uiso   1.00
C37    C    -0.04038   0.53398   0.60423   0.00000  Uiso   1.00
C38    C     0.90210   0.34361  -0.09039   0.00000  Uiso   1.00
C39    C     0.89260   0.54487   0.91094   0.00000  Uiso   1.00
C40    C     0.45040  -0.07166   0.28419   0.00000  Uiso   1.00
Sm41   Sm    0.54236   0.03573   0.85698   0.00000  Uiso   1.00
Sm42   Sm    0.40015   0.95844   0.11901   0.00000  Uiso   1.00
C43    C     0.46945   0.87762   0.98373   0.00000  Uiso   1.00
C44    C     0.29988   0.80459   0.01282   0.00000  Uiso   1.00
O45    O     0.48224  -0.00513   0.70141   0.00000  Uiso   1.00
O46    O     0.54021   0.93583   0.71845   0.00000  Uiso   1.00
O47    O     0.49265   0.06508   0.08064   0.00000  Uiso   1.00
O48    O     0.53099   0.14433   0.96200   0.00000  Uiso   1.00
O49    O     0.64847   0.10232  -0.08382   0.00000  Uiso   1.00
O50    O     0.61933   0.14523   0.79466   0.00000  Uiso   1.00
O51    O     0.44125   0.88438   0.19027   0.00000  Uiso   1.00
O52    O     0.43789  -0.00802   0.29134   0.00000  Uiso   1.00
O53    O     0.46537   0.92818   0.92774   0.00000  Uiso   1.00
O54    O     0.44608   0.87383   0.06951   0.00000  Uiso   1.00
O55    O     0.34197   0.86179   0.96841   0.00000  Uiso   1.00
O56    O     0.30611   0.83164   0.11197   0.00000  Uiso   1.00
C57    C     0.50337   0.94514   0.65678   0.00000  Uiso   1.00
C58    C     0.50251   0.13229   0.04173   0.00000  Uiso   1.00
C59    C     0.66549   0.15310   0.85109   0.00000  Uiso   1.00
N60    N     0.54380   0.58240   0.57246   0.00000  Uiso   1.00
H61    H     0.61186   0.76776   0.47776   0.00000  Uiso   1.00
C62    C     0.55196   0.62858   0.49703   0.00000  Uiso   1.00
C63    C     0.59852   0.72005   0.52801   0.00000  Uiso   1.00
C64    C     0.58452   0.63983   0.66057   0.00000  Uiso   1.00
S65    S     0.63371   0.75147   0.65398   0.00000  Uiso   1.00
N66    N     0.97429   0.50329   0.42322   0.00000  Uiso   1.00
H67    H    -0.03958   0.67943   0.53292   0.00000  Uiso   1.00
C68    C    -0.03554   0.55404   0.50147   0.00000  Uiso   1.00
C69    C    -0.03378   0.62986   0.47819   0.00000  Uiso   1.00
C70    C     0.98356   0.54028   0.33998   0.00000  Uiso   1.00
S71    S    -0.01995   0.63860   0.35381   0.00000  Uiso   1.00
N72    N     0.47237  -0.05619   0.47492   0.00000  Uiso   1.00
H73    H     0.48898   0.80007   0.29419   0.00000  Uiso   1.00
C74    C     0.47085  -0.09501   0.37550   0.00000  Uiso   1.00
C75    C     0.48777   0.83908   0.36767   0.00000  Uiso   1.00
C76    C     0.49082   0.90794   0.54264   0.00000  Uiso   1.00
S77    S     0.50751   0.82566   0.48656   0.00000  Uiso   1.00
N78    N     0.22603   0.42710   1.13650   0.00000  Uiso   1.00
H79    H     0.24473   0.25062   1.05044   0.00000  Uiso   1.00
C80    C     0.25986   0.38459   1.12548   0.00000  Uiso   1.00
C81    C     0.22514   0.29478   1.06909   0.00000  Uiso   1.00
C82    C     0.16548   0.36874   1.08831   0.00000  Uiso   1.00
S83    S     0.14817   0.26031   0.02847   0.00000  Uiso   1.00
N84    N     0.78393   0.24735  -0.09693   0.00000  Uiso   1.00
H85    H     0.85573   0.32413   0.70545   0.00000  Uiso   1.00
C86    C     0.83532   0.29532  -0.14152   0.00000  Uiso   1.00
C87    C     0.82079   0.29171   0.75475   0.00000  Uiso   1.00
C88    C     0.73081   0.21052  -0.16785   0.00000  Uiso   1.00
S89    S     0.74213   0.23157   0.71016   0.00000  Uiso   1.00
N90    N     0.79809   0.55657  -0.06393   0.00000  Uiso   1.00
H91    H     0.92449   0.65542   1.11668   0.00000  Uiso   1.00
C92    C     0.85588   0.57547   0.97443   0.00000  Uiso   1.00
C93    C     0.87833   0.63169   1.07373   0.00000  Uiso   1.00
C94    C     0.77625   0.59801   0.00547   0.00000  Uiso   1.00
S95    S     0.82588   0.66185   1.12166   0.00000  Uiso   1.00
N96    N     0.19166   0.66846  -0.02828   0.00000  Uiso   1.00
H97    H     0.31099   0.68732   0.84947   0.00000  Uiso   1.00
C98    C     0.25206   0.71188   0.95463   0.00000  Uiso   1.00
C99    C     0.26483   0.66265   0.87442   0.00000  Uiso   1.00
C100   C     0.15832   0.58578   0.90406   0.00000  Uiso   1.00
S101   S     0.19984   0.55925   0.81633   0.00000  Uiso   1.00
N102   N     0.50059   0.76967   1.01376   0.00000  Uiso   1.00
H103   H     0.47566   0.79755   0.78044   0.00000  Uiso   1.00
C104   C     0.49331   0.81601   0.94870   0.00000  Uiso   1.00
C105   C     0.48934   0.77743   0.84531   0.00000  Uiso   1.00
C106   C     0.50408   0.69793   0.96215   0.00000  Uiso   1.00
S107   S     0.49507   0.68121   0.82912   0.00000  Uiso   1.00
N108   N     0.50425   0.27300   0.04409   0.00000  Uiso   1.00
H109   H     0.46193   0.35903   0.24744   0.00000  Uiso   1.00
C110   C     0.49658   0.33825   0.10124   0.00000  Uiso   1.00
C111   C     0.46990   0.31450   0.18914   0.00000  Uiso   1.00
C112   C     0.48526   0.20029   0.08588   0.00000  Uiso   1.00
S113   S     0.45531   0.20793   0.20040   0.00000  Uiso   1.00
loop_
_geom_bond_atom_site_label_1
_geom_bond_atom_site_label_2
_geom_bond_distance
_geom_bond_site_symmetry_2
_ccdc_geom_bond_type
C0     O11     1.282   .     A
C0     O12     1.280   .     A
C0     C64     1.468   .     S
Sm1    O5      2.212   .     S
Sm1    O6      2.257   .     S
Sm1    O8      2.271   .     S
Sm1    O10     2.240   .     S
Sm1    O13     2.278   .     S
Sm1    O9      2.217   1_554 S
Sm2    O7      2.246   .     S
Sm2    O11     2.241   .     S
Sm2    O12     2.217   .     S
Sm2    O14     2.247   .     S
Sm2    O16     2.218   .     S
Sm2    O15     2.240   1_556 S
C3     O13     1.280   .     A
C3     C110    1.470   .     S
C3     O14     1.279   1_554 A
C4     O16     1.277   .     A
C4     O15     1.282   1_556 A
C4     C94     1.465   1_556 S
O5     C17     1.276   .     A
O6     C17     1.284   .     A
O7     C18     1.262   .     A
O8     C18     1.271   1_554 A
O9     Sm1     2.217   1_556 S
O9     C19     1.283   1_556 A
O10    C19     1.285   .     A
O14    C3      1.279   1_556 A
O15    Sm2     2.240   1_554 S
O15    C4      1.282   1_554 A
C17    C62     1.473   .     S
C18    C106    1.458   .     S
C18    O8      1.271   1_556 A
C19    O9      1.283   1_554 A
C19    C80     1.474   1_554 S
C20    O32     1.287   .     A
C20    C70     1.453   .     S
C20    O31     1.276   1_655 A
Sm21   O25     2.206   .     S
Sm21   O28     2.259   .     S
Sm21   O30     2.229   .     S
Sm21   O26     2.211   1_655 S
Sm21   O29     2.229   1_556 S
Sm21   O33     2.258   1_655 S
Sm22   O31     2.202   .     S
Sm22   O34     2.239   .     S
Sm22   O36     2.247   .     S
Sm22   O27     2.305   1_455 S
Sm22   O32     2.222   1_455 S
Sm22   O35     2.216   1_554 S
C23    O33     1.265   .     A
C23    C100    1.453   .     S
C23    O34     1.262   1_556 A
C24    O36     1.286   .     A
C24    O35     1.281   1_554 A
C24    C82     1.474   1_554 S
O25    C37     1.283   1_655 A
O26    C37     1.282   .     A
O26    Sm21    2.211   1_455 S
O27    C38     1.275   .     A
O27    Sm22    2.305   1_655 S
O28    C38     1.261   1_556 A
O29    Sm21    2.229   1_554 S
O29    C39     1.281   1_554 A
O30    C39     1.282   .     A
O31    C20     1.276   1_455 A
O32    Sm22    2.222   1_655 S
O33    Sm21    2.258   1_455 S
O34    C23     1.262   1_554 A
O35    Sm22    2.216   1_556 S
O35    C24     1.281   1_556 A
C37    C68     1.451   .     S
C37    O25     1.283   1_455 A
C38    C86     1.476   .     S
C38    O28     1.261   1_554 A
C39    C92     1.468   .     S
C39    O29     1.281   1_556 A
C40    O52     1.266   .     A
C40    C74     1.478   .     S
C40    O51     1.272   1_545 A
Sm41   O45     2.249   .     S
Sm41   O48     2.256   .     S
Sm41   O50     2.227   .     S
Sm41   O46     2.245   1_545 S
Sm41   O49     2.288   1_556 S
Sm41   O53     2.275   1_545 S
Sm42   O51     2.271   .     S
Sm42   O54     2.270   .     S
Sm42   O56     2.240   .     S
Sm42   O47     2.254   1_565 S
Sm42   O52     2.270   1_565 S
Sm42   O55     2.224   1_554 S
C43    O53     1.276   .     A
C43    C104    1.462   .     S
C43    O54     1.284   1_556 A
C44    O56     1.278   .     A
C44    O55     1.277   1_554 A
C44    C98     1.462   1_554 S
O45    C57     1.275   1_545 A
O46    C57     1.277   .     A
O46    Sm41    2.245   1_565 S
O47    C58     1.270   .     A
O47    Sm42    2.254   1_545 S
O48    C58     1.275   1_556 A
O49    Sm41    2.288   1_554 S
O49    C59     1.271   1_554 A
O50    C59     1.262   .     A
O51    C40     1.272   1_565 A
O52    Sm42    2.270   1_545 S
O53    Sm41    2.275   1_565 S
O54    C43     1.284   1_554 A
O55    Sm42    2.224   1_556 S
O55    C44     1.277   1_556 A
C57    C76     1.475   .     S
C57    O45     1.275   1_565 A
C58    C112    1.466   .     S
C58    O48     1.275   1_554 A
C59    O49     1.271   1_556 A
C59    C88     1.469   1_556 S
N60    C62     1.344   .     A
N60    C64     1.352   .     A
H61    C63     1.082   .     S
C62    C63     1.378   .     A
C63    S65     1.696   .     A
C64    S65     1.714   .     A
N66    C70     1.338   .     A
N66    C68     1.335   1_655 A
H67    C69     1.082   .     S
C68    C69     1.377   .     A
C68    N66     1.335   1_455 A
C69    S71     1.703   .     A
C70    S71     1.716   1_655 A
S71    C70     1.716   1_455 A
N72    C74     1.346   .     A
N72    C76     1.351   1_545 A
H73    C75     1.082   .     S
C74    C75     1.378   1_545 A
C75    S77     1.708   .     A
C75    C74     1.378   1_565 A
C76    S77     1.714   .     A
C76    N72     1.351   1_565 A
N78    C80     1.347   .     A
N78    C82     1.352   .     A
H79    C81     1.083   .     S
C80    C81     1.377   .     A
C80    C19     1.474   1_556 S
C81    S83     1.699   1_556 A
C82    S83     1.715   1_556 A
C82    C24     1.474   1_556 S
S83    C81     1.699   1_554 A
S83    C82     1.715   1_554 A
N84    C86     1.349   .     A
N84    C88     1.354   .     A
H85    C87     1.082   .     S
C86    C87     1.379   1_554 A
C87    S89     1.685   .     A
C87    C86     1.379   1_556 A
C88    S89     1.713   1_554 A
C88    C59     1.469   1_554 S
S89    C88     1.713   1_556 A
N90    C94     1.345   .     A
N90    C92     1.338   1_554 A
H91    C93     1.082   .     S
C92    C93     1.378   .     A
C92    N90     1.338   1_556 A
C93    S95     1.710   .     A
C94    S95     1.713   1_554 A
C94    C4      1.465   1_554 S
S95    C94     1.713   1_556 A
N96    C98     1.339   1_554 A
N96    C100    1.347   1_554 A
H97    C99     1.083   .     S
C98    C99     1.376   .     A
C98    N96     1.339   1_556 A
C98    C44     1.462   1_556 S
C99    S101    1.700   .     A
C100   S101    1.714   .     A
C100   N96     1.347   1_556 A
N102   C104    1.335   .     A
N102   C106    1.341   .     A
H103   C105    1.078   .     S
C104   C105    1.377   .     A
C105   S107    1.708   .     A
C106   S107    1.708   .     A
N108   C110    1.333   .     A
N108   C112    1.336   .     A
H109   C111    1.077   .     S
C110   C111    1.379   .     A
C111   S113    1.726   .     A
C112   S113    1.714   .     A
