data_kag+N248+E183
_audit_creation_date              2025-01-21
_audit_creation_method            'Materials Studio'
_symmetry_space_group_name_H-M    'P1'
_symmetry_Int_Tables_number       1
_symmetry_cell_setting            triclinic
loop_
_symmetry_equiv_pos_as_xyz
  x,y,z
_cell_length_a                    27.8383
_cell_length_b                    28.5570
_cell_length_c                    13.1431
_cell_angle_alpha                 91.1099
_cell_angle_beta                  97.1957
_cell_angle_gamma                 128.7784
loop_
_atom_site_label
_atom_site_type_symbol
_atom_site_fract_x
_atom_site_fract_y
_atom_site_fract_z
_atom_site_U_iso_or_equiv
_atom_site_adp_type
_atom_site_occupancy
O0     O     0.51819   0.54884   0.83585   0.00000  Uiso   1.00
Yb1    Yb    0.48912   0.44026   0.98012   0.00000  Uiso   1.00
C2     C     0.43738   0.35013   0.07548   0.00000  Uiso   1.00
Yb3    Yb    0.53448   0.56123   0.00323   0.00000  Uiso   1.00
O4     O     0.48045   0.45113   0.81806   0.00000  Uiso   1.00
C5     C     0.41630   0.50306   0.00637   0.00000  Uiso   1.00
C6     C     0.49840   0.50014   0.77975   0.00000  Uiso   1.00
O7     O     0.50861   0.61671   1.01354   0.00000  Uiso   1.00
C8     C     0.56449   0.66622   1.02012   0.00000  Uiso   1.00
O9     O     0.55834   0.43448   0.96507   0.00000  Uiso   1.00
O10    O     0.58424   0.52608  -0.00266   0.00000  Uiso   1.00
O11    O     0.51145   0.46191   0.15292   0.00000  Uiso   1.00
O12    O     0.60554   0.65955   0.01529   0.00000  Uiso   1.00
O13    O     0.54450   0.55841   0.16663   0.00000  Uiso   1.00
C14    C     0.60046   0.48941   0.97379   0.00000  Uiso   1.00
C15    C     0.52975   0.51113   0.20743   0.00000  Uiso   1.00
O16    O     0.48187   0.40435   0.12274   0.00000  Uiso   1.00
O17    O     0.41526   0.34694   0.98144   0.00000  Uiso   1.00
O18    O     0.45577   0.55793   0.00702   0.00000  Uiso   1.00
O19    O     0.43906   0.47167   0.99770   0.00000  Uiso   1.00
O20    O     0.98589   0.51973   0.80887   0.00000  Uiso   1.00
Yb21   Yb    0.04197   0.47239  -0.01312   0.00000  Uiso   1.00
C22    C     0.12009   0.45322   0.00709   0.00000  Uiso   1.00
Yb23   Yb    0.96435   0.50884   0.96205   0.00000  Uiso   1.00
O24    O     0.03922   0.48235   0.82322   0.00000  Uiso   1.00
C25    C     0.90323   0.40135   0.01630   0.00000  Uiso   1.00
C26    C     0.01468   0.50307   0.77052   0.00000  Uiso   1.00
O27    O     0.87435   0.48031   0.91083   0.00000  Uiso   1.00
C28    C     0.89076   0.53206   0.93959   0.00000  Uiso   1.00
O29    O     0.13623   0.55683   0.99763   0.00000  Uiso   1.00
O30    O     0.05930   0.55470   0.02173   0.00000  Uiso   1.00
O31    O     0.03635   0.47635   0.14949   0.00000  Uiso   1.00
O32    O     0.94867   0.57304  -0.02039   0.00000  Uiso   1.00
O33    O     0.97399   0.50464   0.13303   0.00000  Uiso   1.00
C34    C     0.11948   0.58747   1.00122   0.00000  Uiso   1.00
C35    C     0.00822   0.49371   0.18916   0.00000  Uiso   1.00
O36    O     0.13599   0.50596   0.02139   0.00000  Uiso   1.00
O37    O     0.06137   0.41003   0.97895   0.00000  Uiso   1.00
O38    O     0.90789   0.44224   0.06219   0.00000  Uiso   1.00
O39    O     0.94203   0.42123   0.94293   0.00000  Uiso   1.00
O40    O     0.46483   0.03276   0.12157   0.00000  Uiso   1.00
Yb41   Yb    0.51702   0.98246  -0.02767   0.00000  Uiso   1.00
C42    C     0.55780   0.92490   0.98632   0.00000  Uiso   1.00
Yb43   Yb    0.44968   0.03587   0.94811   0.00000  Uiso   1.00
O44    O     0.50643   0.98354   0.13479   0.00000  Uiso   1.00
C45    C     0.57399   0.11885  -0.02279   0.00000  Uiso   1.00
C46    C     0.48816   0.01090   0.17639   0.00000  Uiso   1.00
O47    O     0.43558   0.05756   0.09421   0.00000  Uiso   1.00
C48    C     0.43845   0.10087   0.05808   0.00000  Uiso   1.00
O49    O     0.44536   0.91696   0.06008   0.00000  Uiso   1.00
O50    O     0.42375   0.94714   0.92557   0.00000  Uiso   1.00
O51    O     0.52681   1.00221   0.81441   0.00000  Uiso   1.00
O52    O     0.45298   0.11144   0.96848   0.00000  Uiso   1.00
O53    O     0.46519   0.03059   0.79278   0.00000  Uiso   1.00
C54    C     0.40257   0.90863   0.00051   0.00000  Uiso   1.00
C55    C     0.49848   0.01834   0.75845   0.00000  Uiso   1.00
O56    O     0.50323   0.90221   0.94017   0.00000  Uiso   1.00
O57    O     0.59394   0.98173   0.01789   0.00000  Uiso   1.00
O58    O     0.53863   0.12584   0.93498   0.00000  Uiso   1.00
O59    O     0.54153   0.06738   0.02102   0.00000  Uiso   1.00
C60    C     0.52898   0.51093   0.31964   0.00000  Uiso   1.00
C61    C     0.52579   0.53532   0.49812   0.00000  Uiso   1.00
C62    C     0.50389   0.47730   0.48975   0.00000  Uiso   1.00
S63    S     0.52958   0.56679   0.61297   0.00000  Uiso   1.00
S64    S     0.48120   0.43944   0.59416   0.00000  Uiso   1.00
S65    S     0.54807   0.57284   0.39301   0.00000  Uiso   1.00
S66    S     0.49999   0.44580   0.37503   0.00000  Uiso   1.00
C67    C     0.50010   0.50129   0.66770   0.00000  Uiso   1.00
C68    C     0.01758   0.50587   0.65978   0.00000  Uiso   1.00
C69    C     0.99522   0.50875   0.47560   0.00000  Uiso   1.00
C70    C     0.03676   0.49815   0.48650   0.00000  Uiso   1.00
S71    S     0.96790   0.51180   0.35566   0.00000  Uiso   1.00
S72    S     0.05875   0.48825   0.37910   0.00000  Uiso   1.00
S73    S     0.97192   0.51716   0.58225   0.00000  Uiso   1.00
S74    S     0.06262   0.49340   0.60644   0.00000  Uiso   1.00
C75    C     0.01146   0.49766   0.30160   0.00000  Uiso   1.00
C76    C     0.49234   0.01499   0.28904   0.00000  Uiso   1.00
C77    C     0.51361   1.00792   0.47175   0.00000  Uiso   1.00
C78    C     0.48504   0.03289   0.46634   0.00000  Uiso   1.00
S79    S     0.53346   0.99488   0.58865   0.00000  Uiso   1.00
S80    S     0.47021   0.04904   0.57658   0.00000  Uiso   1.00
S81    S     0.52650   0.98997   0.36079   0.00000  Uiso   1.00
S82    S     0.46401   0.04477   0.34933   0.00000  Uiso   1.00
C83    C     0.50223   1.02190   0.64811   0.00000  Uiso   1.00
C84    C     0.35345   0.47699   0.02307   0.00000  Uiso   1.00
C85    C     0.24335   0.43231   0.99085   0.00000  Uiso   1.00
C86    C     0.27196   0.47640   0.07241   0.00000  Uiso   1.00
S87    S     0.16789   0.39921   0.93873   0.00000  Uiso   1.00
S88    S     0.23197   0.49598   0.11709   0.00000  Uiso   1.00
S89    S     0.28755   0.41934   0.93828   0.00000  Uiso   1.00
S90    S     0.34877   0.51578   0.11671   0.00000  Uiso   1.00
C91    C     0.16788   0.44580   0.02359   0.00000  Uiso   1.00
C92    C     0.85141   0.33758   0.02210   0.00000  Uiso   1.00
C93    C     0.74833   0.24011   0.96012   0.00000  Uiso   1.00
C94    C     0.74982   0.25241   0.06141   0.00000  Uiso   1.00
S95    S     0.67926   0.18080   0.88750   0.00000  Uiso   1.00
S96    S     0.68304   0.20628   0.11049   0.00000  Uiso   1.00
S97    S     0.81351   0.28907   0.90884   0.00000  Uiso   1.00
S98    S     0.81577   0.31761   0.12895   0.00000  Uiso   1.00
C99    C     0.64213   0.16412   0.99191   0.00000  Uiso   1.00
C100   C     0.84368   0.54047   0.92903   0.00000  Uiso   1.00
C101   C     0.73938   0.50992  -0.10583   0.00000  Uiso   1.00
C102   C     0.77142   0.55592   0.97333   0.00000  Uiso   1.00
S103   S     0.66197   0.47039  -0.14095   0.00000  Uiso   1.00
S104   S     0.73063   0.57140   1.03194   0.00000  Uiso   1.00
S105   S     0.77641   0.48927  -0.15865   0.00000  Uiso   1.00
S106   S     0.84790   0.58920   1.01648   0.00000  Uiso   1.00
C107   C     0.66181   0.51212   0.95428   0.00000  Uiso   1.00
C108   C     0.33787   0.85369  -0.00728   0.00000  Uiso   1.00
C109   C     0.24818   0.74740  -0.05884   0.00000  Uiso   1.00
C110   C     0.24272   0.76168   1.03641   0.00000  Uiso   1.00
S111   S     0.19872   0.67443  -0.11268   0.00000  Uiso   1.00
S112   S     0.18481   0.70478   1.09465   0.00000  Uiso   1.00
S113   S     0.30834   0.80209  -0.11444   0.00000  Uiso   1.00
S114   S     0.29913   0.83367   1.09658   0.00000  Uiso   1.00
C115   C     0.16192   0.65215   0.99274   0.00000  Uiso   1.00
C116   C     0.57186   0.88451   1.01160   0.00000  Uiso   1.00
C117   C     0.60700   0.82449   1.01599   0.00000  Uiso   1.00
C118   C     0.55091   0.79109   0.04880   0.00000  Uiso   1.00
S119   S     0.63947   0.79079   0.99893   0.00000  Uiso   1.00
S120   S     0.51688   0.71984   0.07141   0.00000  Uiso   1.00
S121   S     0.63710   0.89503   0.98564   0.00000  Uiso   1.00
S122   S     0.51370   0.81943   0.05605   0.00000  Uiso   1.00
C123   C     0.57605   0.72394   1.03342   0.00000  Uiso   1.00
C124   C     0.42066   0.29591   1.12003   0.00000  Uiso   1.00
C125   C     0.44411   0.22878   0.16733   0.00000  Uiso   1.00
C126   C     0.38742   0.19378   1.10404   0.00000  Uiso   1.00
S127   S     0.48253   0.20067   0.19046   0.00000  Uiso   1.00
S128   S     0.35784   0.12386   1.05442   0.00000  Uiso   1.00
S129   S     0.47902   0.30256   0.20001   0.00000  Uiso   1.00
S130   S     0.35585   0.22602   1.05984   0.00000  Uiso   1.00
C131   C     0.42392   0.13518   0.11033   0.00000  Uiso   1.00
loop_
_geom_bond_atom_site_label_1
_geom_bond_atom_site_label_2
_geom_bond_distance
_geom_bond_site_symmetry_2
_ccdc_geom_bond_type
O0     C6      1.296   .     A
O0     Yb3     2.165   1_556 S
Yb1    O4      2.164   .     S
Yb1    O9      2.067   .     S
Yb1    O17     2.116   .     S
Yb1    O19     2.107   .     S
Yb1    Yb3     2.832   1_556 S
Yb1    O10     2.184   1_556 S
Yb1    O11     2.244   1_556 S
Yb1    O16     2.125   1_556 S
C2     O16     1.298   .     A
C2     O17     1.285   1_554 A
C2     C124    1.469   1_554 S
Yb3    O10     2.167   .     S
Yb3    O12     2.184   .     S
Yb3    O13     2.140   .     S
Yb3    O18     2.140   .     S
Yb3    O0      2.165   1_554 S
Yb3    Yb1     2.832   1_554 S
Yb3    O7      2.119   1_554 S
Yb3    O19     2.244   1_554 S
O4     C6      1.295   .     A
C5     O18     1.226   .     D
C5     C84     1.461   .     S
C5     O19     1.394   1_554 S
C6     C67     1.480   .     S
O7     C8      1.278   .     A
O7     Yb3     2.119   1_556 S
C8     C123    1.470   .     S
C8     O12     1.280   1_556 A
O9     C14     1.226   .     D
O10    Yb1     2.184   1_554 S
O10    C14     1.418   1_554 S
O11    C15     1.312   .     A
O11    Yb1     2.244   1_554 S
O12    C8      1.280   1_554 A
O13    C15     1.291   .     A
C14    C107    1.460   .     S
C14    O10     1.418   1_556 S
C15    C60     1.478   .     S
O16    Yb1     2.125   1_554 S
O17    C2      1.285   1_556 A
O19    Yb3     2.244   1_556 S
O19    C5      1.394   1_556 S
O20    Yb23    2.145   .     S
O20    C26     1.301   1_655 A
Yb21   O30     2.110   .     S
Yb21   O31     2.168   .     S
Yb21   O36     2.126   .     S
Yb21   Yb23    2.918   1_454 S
Yb21   O24     2.173   1_554 S
Yb21   O29     2.165   1_554 S
Yb21   O37     2.165   1_554 S
Yb21   O39     2.164   1_454 S
C22    O36     1.278   .     A
C22    C91     1.465   .     S
C22    O37     1.279   1_554 A
Yb23   O27     2.096   .     S
Yb23   O39     2.168   .     S
Yb23   Yb21    2.918   1_656 S
Yb23   O30     2.103   1_656 S
Yb23   O32     2.148   1_556 S
Yb23   O33     2.244   1_556 S
Yb23   O38     2.166   1_556 S
O24    C26     1.304   .     A
O24    Yb21    2.173   1_556 S
C25    O38     1.228   .     D
C25    C92     1.465   .     S
C25    O39     1.390   1_554 S
C26    C68     1.469   .     S
C26    O20     1.301   1_455 A
O27    C28     1.275   .     A
C28    C100    1.464   .     S
C28    O32     1.283   1_556 A
O29    C34     1.225   .     D
O29    Yb21    2.165   1_556 S
O30    Yb23    2.103   1_454 S
O30    C34     1.384   1_554 S
O31    C35     1.307   .     A
O32    Yb23    2.148   1_554 S
O32    C28     1.283   1_554 A
O33    Yb23    2.244   1_554 S
O33    C35     1.325   1_655 A
C34    C115    1.458   .     S
C34    O30     1.384   1_556 S
C35    C75     1.467   .     S
C35    O33     1.325   1_455 A
O37    Yb21    2.165   1_556 S
O37    C22     1.279   1_556 A
O38    Yb23    2.166   1_554 S
O39    Yb21    2.164   1_656 S
O39    C25     1.390   1_556 S
O40    C46     1.318   .     A
O40    Yb43    2.280   1_554 S
Yb41   O44     2.194   .     S
Yb41   O49     2.190   .     S
Yb41   O57     2.163   .     S
Yb41   Yb43    3.065   1_564 S
Yb41   O50     2.105   1_554 S
Yb41   O51     2.167   1_554 S
Yb41   O56     2.097   1_554 S
Yb41   O59     2.124   1_565 S
C42    O56     1.271   .     A
C42    C116    1.463   .     S
C42    O57     1.282   1_556 A
Yb43   O52     2.112   .     S
Yb43   O53     2.161   .     S
Yb43   O58     2.218   .     S
Yb43   O40     2.280   1_556 S
Yb43   Yb41    3.065   1_546 S
Yb43   O47     2.161   1_556 S
Yb43   O50     2.158   1_545 S
Yb43   O59     2.176   1_556 S
O44    C46     1.311   1_565 A
C45    O59     1.345   .     S
C45    O58     1.196   1_554 D
C45    C99     1.461   1_554 S
C46    C76     1.467   .     S
C46    O44     1.311   1_545 A
O47    C48     1.292   .     A
O47    Yb43    2.161   1_554 S
C48    C131    1.461   .     S
C48    O52     1.273   1_554 A
O49    C54     1.222   .     D
O50    Yb41    2.105   1_556 S
O50    Yb43    2.158   1_565 S
O50    C54     1.379   1_556 S
O51    Yb41    2.167   1_556 S
O51    C55     1.303   1_565 A
O52    C48     1.273   1_556 A
O53    C55     1.299   .     A
C54    C108    1.457   .     S
C54    O50     1.379   1_554 S
C55    O51     1.303   1_545 A
C55    C83     1.468   1_545 S
O56    Yb41    2.097   1_556 S
O57    C42     1.282   1_554 A
O58    C45     1.196   1_556 D
O59    Yb41    2.124   1_545 S
O59    Yb43    2.176   1_554 S
C60    S65     1.723   .     A
C60    S66     1.720   .     A
C61    C62     1.356   .     A
C61    S63     1.699   .     A
C61    S65     1.697   .     A
C62    S64     1.694   .     A
C62    S66     1.697   .     A
S63    C67     1.722   .     A
S64    C67     1.725   .     A
C68    S74     1.720   .     A
C68    S73     1.720   1_455 A
C69    S71     1.691   .     A
C69    S73     1.689   .     A
C69    C70     1.360   1_655 A
C70    S72     1.693   .     A
C70    S74     1.694   .     A
C70    C69     1.360   1_455 A
S71    C75     1.719   1_655 A
S72    C75     1.721   .     A
S73    C68     1.720   1_655 A
C75    S71     1.719   1_455 A
C76    S82     1.716   .     A
C76    S81     1.720   1_545 A
C77    S79     1.695   .     A
C77    S81     1.689   .     A
C77    C78     1.358   1_565 A
C78    S80     1.687   .     A
C78    S82     1.693   .     A
C78    C77     1.358   1_545 A
S79    C83     1.717   .     A
S80    C83     1.721   1_545 A
S81    C76     1.720   1_565 A
C83    S80     1.721   1_565 A
C83    C55     1.468   1_565 S
C84    S90     1.711   .     A
C84    S89     1.718   1_554 A
C85    S87     1.704   .     A
C85    S89     1.703   .     A
C85    C86     1.359   1_556 A
C86    S88     1.682   .     A
C86    S90     1.681   .     A
C86    C85     1.359   1_554 A
S87    C91     1.720   1_556 A
S88    C91     1.711   .     A
S89    C84     1.718   1_556 A
C91    S87     1.720   1_554 A
C92    S98     1.718   .     A
C92    S97     1.716   1_554 A
C93    S95     1.696   .     A
C93    S97     1.693   .     A
C93    C94     1.359   1_556 A
C94    S96     1.695   .     A
C94    S98     1.694   .     A
C94    C93     1.359   1_554 A
S95    C99     1.715   .     A
S96    C99     1.715   1_554 A
S97    C92     1.716   1_556 A
C99    S96     1.715   1_556 A
C99    C45     1.461   1_556 S
C100   S106    1.724   .     A
C100   S105    1.714   1_556 A
C101   S103    1.678   .     A
C101   S105    1.678   .     A
C101   C102    1.360   1_554 A
C102   S104    1.707   .     A
C102   S106    1.703   .     A
C102   C101    1.360   1_556 A
S103   C107    1.714   1_554 A
S104   C107    1.720   .     A
S105   C100    1.714   1_554 A
C107   S103    1.714   1_556 A
C108   S113    1.715   .     A
C108   S114    1.726   1_554 A
C109   S111    1.686   .     A
C109   S113    1.689   .     A
C109   C110    1.365   1_554 A
C110   S112    1.703   .     A
C110   S114    1.703   .     A
C110   C109    1.365   1_556 A
S111   C115    1.717   1_554 A
S112   C115    1.723   .     A
S114   C108    1.726   1_556 A
C115   S111    1.717   1_556 A
C116   S121    1.726   .     A
C116   S122    1.711   1_556 A
C117   S119    1.710   .     A
C117   S121    1.709   .     A
C117   C118    1.361   1_556 A
C118   S120    1.675   .     A
C118   S122    1.676   .     A
C118   C117    1.361   1_554 A
S119   C123    1.726   .     A
S120   C123    1.715   1_554 A
S122   C116    1.711   1_554 A
C123   S120    1.715   1_556 A
C124   S130    1.713   .     A
C124   S129    1.720   1_556 A
C124   C2      1.469   1_556 S
C125   S127    1.698   .     A
C125   S129    1.692   .     A
C125   C126    1.358   1_554 A
C126   S128    1.687   .     A
C126   S130    1.692   .     A
C126   C125    1.358   1_556 A
S127   C131    1.715   .     A
S128   C131    1.713   1_556 A
S129   C124    1.720   1_554 A
C131   S128    1.713   1_554 A
