data_kag+N394+E183
_audit_creation_date              2025-01-21
_audit_creation_method            'Materials Studio'
_symmetry_space_group_name_H-M    'P1'
_symmetry_Int_Tables_number       1
_symmetry_cell_setting            triclinic
loop_
_symmetry_equiv_pos_as_xyz
  x,y,z
_cell_length_a                    26.6321
_cell_length_b                    28.6050
_cell_length_c                    12.3650
_cell_angle_alpha                 87.4695
_cell_angle_beta                  93.2642
_cell_angle_gamma                 112.1274
loop_
_atom_site_label
_atom_site_type_symbol
_atom_site_fract_x
_atom_site_fract_y
_atom_site_fract_z
_atom_site_U_iso_or_equiv
_atom_site_adp_type
_atom_site_occupancy
Pr0    Pr    0.52096   0.55550  -0.00187   0.00000  Uiso   1.00
Pr1    Pr    0.48366   0.44440   1.00668   0.00000  Uiso   1.00
O2     O     0.39977   0.44966   1.01651   0.00000  Uiso   1.00
O3     O     0.42984   0.53612   0.01136   0.00000  Uiso   1.00
O4     O     0.53897   0.63043   0.90864   0.00000  Uiso   1.00
O5     O     0.54757   0.63056   0.08323   0.00000  Uiso   1.00
O6     O     0.50904   0.50106   0.13631   0.00000  Uiso   1.00
O7     O     0.53863   0.58219   0.17228   0.00000  Uiso   1.00
C8     C     0.47909   0.46089   0.79391   0.00000  Uiso   1.00
C9     C     0.39162   0.49167   0.01788   0.00000  Uiso   1.00
C10    C     0.54905   0.65606   0.99474   0.00000  Uiso   1.00
C11    C     0.45556   0.34388   0.00752   0.00000  Uiso   1.00
C12    C     0.61296   0.50834   0.98585   0.00000  Uiso   1.00
C13    C     0.52550   0.53917   0.21087   0.00000  Uiso   1.00
O14    O     0.60477   0.55026  -0.01123   0.00000  Uiso   1.00
O15    O     0.57481   0.46381   0.99221   0.00000  Uiso   1.00
O16    O     0.46534   0.36893   0.09447   0.00000  Uiso   1.00
O17    O     0.45729   0.36993   0.91979   0.00000  Uiso   1.00
O18    O     0.49557   0.49890   0.86866   0.00000  Uiso   1.00
O19    O     0.46584   0.41785   0.83235   0.00000  Uiso   1.00
Pr20   Pr    0.97396   0.44167   1.01795   0.00000  Uiso   1.00
Pr21   Pr    0.03095   0.56051  -0.01606   0.00000  Uiso   1.00
O22    O     0.94094   0.55108  -0.04488   0.00000  Uiso   1.00
O23    O     0.90050   0.46447   0.97525   0.00000  Uiso   1.00
O24    O     0.91997   0.37022   0.10484   0.00000  Uiso   1.00
O25    O     0.94685   0.36359   0.94758   0.00000  Uiso   1.00
O26    O     0.02171   0.49338   0.88443   0.00000  Uiso   1.00
O27    O     0.93990   0.44914   0.84281   0.00000  Uiso   1.00
C28    C     0.02388   0.52328   0.19605   0.00000  Uiso   1.00
C29    C     0.89854   0.50909   0.95898   0.00000  Uiso   1.00
C30    C     0.91729   0.34165   0.02649   0.00000  Uiso   1.00
C31    C     0.08765   0.66051   0.97333   0.00000  Uiso   1.00
C32    C     0.10640   0.49306   0.04187   0.00000  Uiso   1.00
C33    C     0.98094   0.47891   0.80596   0.00000  Uiso   1.00
O34    O     0.06406   0.45107   1.04759   0.00000  Uiso   1.00
O35    O     0.10427   0.53756   0.02490   0.00000  Uiso   1.00
O36    O     0.08489   0.63147   0.89577   0.00000  Uiso   1.00
O37    O     0.05841   0.63896   0.05294   0.00000  Uiso   1.00
O38    O     0.98314   0.50877   0.11755   0.00000  Uiso   1.00
O39    O     0.06489   0.55311   0.15923   0.00000  Uiso   1.00
Pr40   Pr    0.56500   0.03633  -0.01014   0.00000  Uiso   1.00
Pr41   Pr    0.44114   0.96427   1.00996   0.00000  Uiso   1.00
O42    O     0.43437   0.04221   0.02166   0.00000  Uiso   1.00
O43    O     0.52459   0.09434   0.00824   0.00000  Uiso   1.00
O44    O     0.63727   0.09504   0.90791   0.00000  Uiso   1.00
O45    O     0.64815   0.07277   0.07304   0.00000  Uiso   1.00
O46    O     0.51535   0.98554   0.12278   0.00000  Uiso   1.00
O47    O     0.54945   0.06347   0.15517   0.00000  Uiso   1.00
C48    C     0.48231   0.97799   0.80462   0.00000  Uiso   1.00
C49    C     0.47339   0.08641   0.01592   0.00000  Uiso   1.00
C50    C     0.66893   0.10133   0.99218   0.00000  Uiso   1.00
C51    C     0.33694   0.89982   0.00651   0.00000  Uiso   1.00
C52    C     0.53247   0.91409   0.98318   0.00000  Uiso   1.00
C53    C     0.52362   0.02288   0.19484   0.00000  Uiso   1.00
O54    O     0.57154   0.95830   0.97794   0.00000  Uiso   1.00
O55    O     0.48128   0.90614   0.99107   0.00000  Uiso   1.00
O56    O     0.36812   0.90628   0.09148   0.00000  Uiso   1.00
O57    O     0.35836   0.92790   0.92563   0.00000  Uiso   1.00
O58    O     0.49087   0.01521   0.87720   0.00000  Uiso   1.00
O59    O     0.45592   0.93740   0.84366   0.00000  Uiso   1.00
C60    C     0.52233   0.52647   0.32532   0.00000  Uiso   1.00
C61    C     0.50586   0.52404   0.51478   0.00000  Uiso   1.00
C62    C     0.49891   0.47613   0.49009   0.00000  Uiso   1.00
S63    S     0.49668   0.53567   0.64223   0.00000  Uiso   1.00
S64    S     0.48152   0.43049   0.58777   0.00000  Uiso   1.00
S65    S     0.52322   0.56968   0.41709   0.00000  Uiso   1.00
S66    S     0.50806   0.46448   0.36265   0.00000  Uiso   1.00
C67    C     0.48236   0.47366   0.67952   0.00000  Uiso   1.00
C68    C     0.98804   0.49098   0.68905   0.00000  Uiso   1.00
C69    C     0.02886   0.51559   0.51161   0.00000  Uiso   1.00
C70    C     0.97591   0.48666   0.49041   0.00000  Uiso   1.00
S71    S     0.06950   0.53905   0.40523   0.00000  Uiso   1.00
S72    S     0.95358   0.47569   0.35883   0.00000  Uiso   1.00
S73    S     0.05121   0.52655   0.64318   0.00000  Uiso   1.00
S74    S     0.93526   0.46324   0.59679   0.00000  Uiso   1.00
C75    C     0.01675   0.51124   0.31297   0.00000  Uiso   1.00
C76    C     0.51122   1.01449   0.31061   0.00000  Uiso   1.00
C77    C     0.51365   0.02578   0.50718   0.00000  Uiso   1.00
C78    C     0.49234   0.97521   0.49234   0.00000  Uiso   1.00
S79    S     0.52136   0.04697   0.63576   0.00000  Uiso   1.00
S80    S     0.47463   0.93625   0.60324   0.00000  Uiso   1.00
S81    S     0.53135   0.06473   0.39623   0.00000  Uiso   1.00
S82    S     0.48467   0.95401   0.36380   0.00000  Uiso   1.00
C83    C     0.49473  -0.01352   0.68888   0.00000  Uiso   1.00
C84    C     0.33611   0.48998   0.02750   0.00000  Uiso   1.00
C85    C     0.25855   0.51545   1.03274   0.00000  Uiso   1.00
C86    C     0.23877   0.46494   0.05357   0.00000  Uiso   1.00
S87    S     0.21552   0.54621   1.02617   0.00000  Uiso   1.00
S88    S     0.17105   0.43541   0.07126   0.00000  Uiso   1.00
S89    S     0.32510   0.54532   1.01070   0.00000  Uiso   1.00
S90    S     0.28282   0.43455   0.05646   0.00000  Uiso   1.00
C91    C     0.16107   0.49130   1.05034   0.00000  Uiso   1.00
C92    C     0.87898   0.28901   0.02251   0.00000  Uiso   1.00
C93    C     0.80559   0.21320   0.95637   0.00000  Uiso   1.00
C94    C     0.80366   0.21068   0.06600   0.00000  Uiso   1.00
S95    S     0.75526   0.16957   0.88309   0.00000  Uiso   1.00
S96    S     0.75215   0.16298   0.12349   0.00000  Uiso   1.00
S97    S     0.85517   0.26265   0.89856   0.00000  Uiso   1.00
S98    S     0.84967   0.25804   0.13852   0.00000  Uiso   1.00
C99    C     0.72356   0.14077   0.99876   0.00000  Uiso   1.00
C100   C     0.84411   0.51125  -0.05177   0.00000  Uiso   1.00
C101   C     0.74583   0.48614   0.95195   0.00000  Uiso   1.00
C102   C     0.76673   0.53715  -0.04122   0.00000  Uiso   1.00
S103   S     0.67819   0.45512   0.95863   0.00000  Uiso   1.00
S104   S     0.72323   0.56698  -0.02654   0.00000  Uiso   1.00
S105   S     0.78854   0.45563   0.94190   0.00000  Uiso   1.00
S106   S     0.83515   0.56748  -0.04312   0.00000  Uiso   1.00
C107   C     0.66846   0.51048   0.97356   0.00000  Uiso   1.00
C108   C     0.28216   0.86067  -0.00095   0.00000  Uiso   1.00
C109   C     0.20262   0.79032   0.93167   0.00000  Uiso   1.00
C110   C     0.19873   0.78970   0.04073   0.00000  Uiso   1.00
S111   S     0.15760   0.74201   0.86005   0.00000  Uiso   1.00
S112   S     0.14761   0.74160   0.09837   0.00000  Uiso   1.00
S113   S     0.25548   0.83662   0.87452   0.00000  Uiso   1.00
S114   S     0.24829   0.83409   0.11401   0.00000  Uiso   1.00
C115   C     0.12592   0.71319   0.97565   0.00000  Uiso   1.00
C116   C     0.54657   0.86952   0.98367   0.00000  Uiso   1.00
C117   C     0.55799   0.79161   0.04262   0.00000  Uiso   1.00
C118   C     0.55528   0.79178   0.93259   0.00000  Uiso   1.00
S119   S     0.56105   0.74003   0.11094   0.00000  Uiso   1.00
S120   S     0.55496   0.74019   0.86999   0.00000  Uiso   1.00
S121   S     0.55352   0.84116   0.10555   0.00000  Uiso   1.00
S122   S     0.54769   0.84166   0.86444   0.00000  Uiso   1.00
C123   C     0.55754   0.70988  -0.00787   0.00000  Uiso   1.00
C124   C     0.44724   0.29015   1.00798   0.00000  Uiso   1.00
C125   C     0.44694   0.20712   0.06535   0.00000  Uiso   1.00
C126   C     0.45048   0.21007   0.95592   0.00000  Uiso   1.00
S127   S     0.45076   0.15548   0.13283   0.00000  Uiso   1.00
S128   S     0.45930   0.16255   0.89319   0.00000  Uiso   1.00
S129   S     0.44351   0.25708   0.12877   0.00000  Uiso   1.00
S130   S     0.45045   0.26296   0.88894   0.00000  Uiso   1.00
C131   C     0.45928   0.13100   0.01428   0.00000  Uiso   1.00
loop_
_geom_bond_atom_site_label_1
_geom_bond_atom_site_label_2
_geom_bond_distance
_geom_bond_site_symmetry_2
_ccdc_geom_bond_type
Pr0    O3      2.291   .     S
Pr0    O5      2.278   .     S
Pr0    O6      2.213   .     S
Pr0    O7      2.280   .     S
Pr0    O14     2.302   .     S
Pr0    O4      2.264   1_554 S
Pr0    O18     2.219   1_554 S
Pr1    O2      2.305   .     S
Pr1    O15     2.293   .     S
Pr1    O17     2.275   .     S
Pr1    O18     2.213   .     S
Pr1    O19     2.282   .     S
Pr1    O6      2.221   1_556 S
Pr1    O16     2.267   1_556 S
O2     C9      1.300   1_556 A
O3     C9      1.298   .     A
O4     C10     1.277   .     A
O4     Pr0     2.264   1_556 S
O5     C10     1.282   1_554 A
O6     C13     1.383   .     S
O6     Pr1     2.221   1_554 S
O7     C13     1.228   .     D
C8     O18     1.383   .     S
C8     O19     1.227   .     D
C8     C67     1.444   .     S
C9     C84     1.472   .     S
C9     O2      1.300   1_554 A
C10    O5      1.282   1_556 A
C10    C123    1.468   1_556 S
C11    O16     1.278   .     A
C11    O17     1.282   1_554 A
C11    C124    1.468   1_554 S
C12    O15     1.298   .     A
C12    C107    1.472   .     S
C12    O14     1.300   1_556 A
C13    C60     1.445   .     S
O14    C12     1.300   1_554 A
O16    Pr1     2.267   1_554 S
O17    C11     1.282   1_556 A
O18    Pr0     2.219   1_556 S
Pr20   O23     2.312   .     S
Pr20   O25     2.270   .     S
Pr20   O27     2.332   .     S
Pr20   O24     2.273   1_556 S
Pr20   O26     2.267   1_655 S
Pr20   O34     2.321   1_655 S
Pr20   O38     2.254   1_556 S
Pr21   O35     2.307   .     S
Pr21   O37     2.272   .     S
Pr21   O39     2.332   .     S
Pr21   O22     2.318   1_455 S
Pr21   O26     2.254   1_554 S
Pr21   O36     2.271   1_554 S
Pr21   O38     2.268   1_455 S
O22    Pr21    2.318   1_655 S
O22    C29     1.304   1_554 A
O23    C29     1.304   .     A
O24    C30     1.277   .     A
O24    Pr20    2.273   1_554 S
O25    C30     1.276   1_556 A
O26    Pr20    2.267   1_455 S
O26    Pr21    2.254   1_556 S
O26    C33     1.367   1_455 S
O27    C33     1.204   .     D
C28    O39     1.204   .     D
C28    C75     1.477   .     S
C28    O38     1.367   1_455 S
C29    O22     1.304   1_556 A
C29    C100    1.472   1_556 S
C30    C92     1.468   .     S
C30    O25     1.276   1_554 A
C31    O36     1.277   .     A
C31    C115    1.468   .     S
C31    O37     1.276   1_556 A
C32    O35     1.303   .     A
C32    O34     1.304   1_554 A
C32    C91     1.473   1_554 S
C33    C68     1.477   .     S
C33    O26     1.367   1_655 S
O34    Pr20    2.321   1_455 S
O34    C32     1.304   1_556 A
O36    Pr21    2.271   1_556 S
O37    C31     1.276   1_554 A
O38    Pr20    2.254   1_554 S
O38    Pr21    2.268   1_655 S
O38    C28     1.367   1_655 S
Pr40   O43     2.317   .     S
Pr40   O45     2.268   .     S
Pr40   O47     2.331   .     S
Pr40   O44     2.278   1_554 S
Pr40   O46     2.269   1_545 S
Pr40   O54     2.315   1_544 S
Pr40   O58     2.251   1_554 S
Pr41   O55     2.316   .     S
Pr41   O57     2.266   .     S
Pr41   O59     2.331   .     S
Pr41   O42     2.315   1_566 S
Pr41   O46     2.253   1_556 S
Pr41   O56     2.279   1_556 S
Pr41   O58     2.270   1_565 S
O42    C49     1.302   .     A
O42    Pr41    2.315   1_544 S
O43    C49     1.304   .     A
O44    C50     1.277   .     A
O44    Pr40    2.278   1_556 S
O45    C50     1.274   1_554 A
O46    Pr40    2.269   1_565 S
O46    Pr41    2.253   1_554 S
O46    C53     1.367   1_565 S
O47    C53     1.203   .     D
C48    O59     1.204   .     D
C48    O58     1.367   1_565 S
C48    C83     1.476   1_565 S
C49    C131    1.458   .     S
C50    C99     1.468   .     S
C50    O45     1.274   1_556 A
C51    O56     1.277   .     A
C51    C108    1.468   .     S
C51    O57     1.273   1_554 A
C52    O54     1.302   .     A
C52    O55     1.304   .     A
C52    C116    1.458   .     S
C53    O46     1.367   1_545 S
C53    C76     1.476   1_545 S
O54    Pr40    2.315   1_566 S
O56    Pr41    2.279   1_554 S
O57    C51     1.273   1_556 A
O58    Pr40    2.251   1_556 S
O58    Pr41    2.270   1_545 S
O58    C48     1.367   1_545 S
C60    S65     1.707   .     A
C60    S66     1.715   .     A
C61    C62     1.358   .     A
C61    S63     1.675   .     A
C61    S65     1.687   .     A
C62    S64     1.687   .     A
C62    S66     1.675   .     A
S63    C67     1.715   .     A
S64    C67     1.707   .     A
C68    S74     1.722   .     A
C68    S73     1.719   1_655 A
C69    S71     1.700   .     A
C69    S73     1.701   .     A
C69    C70     1.357   1_455 A
C70    S72     1.701   .     A
C70    S74     1.700   .     A
C70    C69     1.357   1_655 A
S71    C75     1.721   .     A
S72    C75     1.719   1_655 A
S73    C68     1.719   1_455 A
C75    S72     1.719   1_455 A
C76    S82     1.720   .     A
C76    S81     1.721   1_565 A
C76    C53     1.476   1_565 S
C77    S79     1.700   .     A
C77    S81     1.700   .     A
C77    C78     1.357   1_545 A
C78    S80     1.699   .     A
C78    S82     1.700   .     A
C78    C77     1.357   1_565 A
S79    C83     1.719   .     A
S80    C83     1.721   1_565 A
S81    C76     1.721   1_545 A
C83    S80     1.721   1_545 A
C83    C48     1.476   1_545 S
C84    S90     1.723   .     A
C84    S89     1.717   1_554 A
C85    S87     1.684   .     A
C85    S89     1.685   .     A
C85    C86     1.357   1_556 A
C86    S88     1.701   .     A
C86    S90     1.701   .     A
C86    C85     1.357   1_554 A
S87    C91     1.718   .     A
S88    C91     1.723   1_554 A
S89    C84     1.717   1_556 A
C91    S88     1.723   1_556 A
C91    C32     1.473   1_556 S
C92    S98     1.716   .     A
C92    S97     1.718   1_554 A
C93    S95     1.696   .     A
C93    S97     1.693   .     A
C93    C94     1.357   1_556 A
C94    S96     1.693   .     A
C94    S98     1.695   .     A
C94    C93     1.357   1_554 A
S95    C99     1.716   .     A
S96    C99     1.718   1_554 A
S97    C92     1.718   1_556 A
C99    S96     1.718   1_556 A
C100   S106    1.721   .     A
C100   S105    1.718   1_554 A
C100   C29     1.472   1_554 S
C101   S103    1.687   .     A
C101   S105    1.686   .     A
C101   C102    1.356   1_556 A
C102   S104    1.699   .     A
C102   S106    1.699   .     A
C102   C101    1.356   1_554 A
S103   C107    1.717   .     A
S104   C107    1.722   1_554 A
S105   C100    1.718   1_556 A
C107   S104    1.722   1_556 A
C108   S114    1.717   .     A
C108   S113    1.718   1_554 A
C109   S111    1.694   .     A
C109   S113    1.692   .     A
C109   C110    1.357   1_556 A
C110   S112    1.693   .     A
C110   S114    1.697   .     A
C110   C109    1.357   1_554 A
S111   C115    1.716   .     A
S112   C115    1.718   1_554 A
S113   C108    1.718   1_556 A
C115   S112    1.718   1_556 A
C116   S122    1.714   .     A
C116   S121    1.714   1_556 A
C117   S119    1.694   .     A
C117   S121    1.692   .     A
C117   C118    1.358   1_554 A
C118   S120    1.693   .     A
C118   S122    1.697   .     A
C118   C117    1.358   1_556 A
S119   C123    1.717   .     A
S120   C123    1.719   1_556 A
S121   C116    1.714   1_554 A
C123   S120    1.719   1_554 A
C123   C10     1.468   1_554 S
C124   S130    1.716   .     A
C124   S129    1.720   1_556 A
C124   C11     1.468   1_556 S
C125   S127    1.698   .     A
C125   S129    1.695   .     A
C125   C126    1.358   1_554 A
C126   S128    1.691   .     A
C126   S130    1.693   .     A
C126   C125    1.358   1_556 A
S127   C131    1.714   .     A
S128   C131    1.714   1_556 A
S129   C124    1.720   1_554 A
C131   S128    1.714   1_554 A
