data_kag+N173+E14
_audit_creation_date              2025-01-21
_audit_creation_method            'Materials Studio'
_symmetry_space_group_name_H-M    'P1'
_symmetry_Int_Tables_number       1
_symmetry_cell_setting            triclinic
loop_
_symmetry_equiv_pos_as_xyz
  x,y,z
_cell_length_a                    24.6391
_cell_length_b                    25.2611
_cell_length_c                    11.1334
_cell_angle_alpha                 98.3505
_cell_angle_beta                  100.5181
_cell_angle_gamma                 122.4026
loop_
_atom_site_label
_atom_site_type_symbol
_atom_site_fract_x
_atom_site_fract_y
_atom_site_fract_z
_atom_site_U_iso_or_equiv
_atom_site_adp_type
_atom_site_occupancy
Gd0    Gd    0.55759   0.42081   0.95232   0.00000  Uiso   1.00
Gd1    Gd    0.63775   0.59680   0.04571   0.00000  Uiso   1.00
O2     O     0.59733   0.54072   0.19337   0.00000  Uiso   1.00
O3     O     0.57865   0.44027   0.16495   0.00000  Uiso   1.00
O4     O     0.48440   0.44710  -0.02858   0.00000  Uiso   1.00
O5     O     0.52764   0.54625   0.93465   0.00000  Uiso   1.00
O6     O     0.59780   0.36100   0.94632   0.00000  Uiso   1.00
O7     O     0.55537   0.36680   0.09733   0.00000  Uiso   1.00
O8     O     0.54889   0.42371   0.75330   0.00000  Uiso   1.00
C9     C     0.57927   0.34018   1.03900   0.00000  Uiso   1.00
O10    O     0.59884   0.52257   0.85587   0.00000  Uiso   1.00
O11    O     0.66562   0.50908   1.03362   0.00000  Uiso   1.00
C12    C     0.47936   0.49422  -0.04580   0.00000  Uiso   1.00
O13    O     0.73736   0.61210   0.10790   0.00000  Uiso   1.00
O14    O     0.56926   0.62795  -0.00881   0.00000  Uiso   1.00
O15    O     0.66492   0.67458   0.95122   0.00000  Uiso   1.00
C16    C     0.58566   0.49122   0.23372   0.00000  Uiso   1.00
C17    C     0.61248   0.67376  -0.04735   0.00000  Uiso   1.00
C18    C     0.72710   0.55667   0.07874   0.00000  Uiso   1.00
C19    C     0.57728   0.48145   0.75080   0.00000  Uiso   1.00
Gd20   Gd    0.06003   0.54211   1.03777   0.00000  Uiso   1.00
Gd21   Gd    0.13702   0.47367   0.04203   0.00000  Uiso   1.00
O22    O     0.13688   0.50697   0.24750   0.00000  Uiso   1.00
O23    O     0.06769   0.53848   0.23656   0.00000  Uiso   1.00
O24    O     0.16822   0.63182   0.09499   0.00000  Uiso   1.00
O25    O     0.20264   0.57353   0.01046   0.00000  Uiso   1.00
O26    O     0.94665   0.49547   0.98463   0.00000  Uiso   1.00
O27    O     1.01332   0.58949   0.12254   0.00000  Uiso   1.00
O28    O     0.04541   0.54267   0.83810   0.00000  Uiso   1.00
C29    C     0.95153   0.54280   0.06462   0.00000  Uiso   1.00
O30    O     0.09867   0.50178   0.88189   0.00000  Uiso   1.00
O31    O     0.97399   0.43587   1.00041   0.00000  Uiso   1.00
C32    C     0.20733   0.62706   0.04209   0.00000  Uiso   1.00
O33    O     0.02846   0.38772   0.98802   0.00000  Uiso   1.00
O34    O     0.24831   0.52385   0.08695   0.00000  Uiso   1.00
O35    O     0.18312   0.43880   0.92314   0.00000  Uiso   1.00
C36    C     0.10207   0.52211   0.29615   0.00000  Uiso   1.00
C37    C     0.24400   0.48335   0.99577   0.00000  Uiso   1.00
C38    C     0.97649   0.38599   0.99199   0.00000  Uiso   1.00
C39    C     0.07540   0.51913   0.79880   0.00000  Uiso   1.00
Gd40   Gd    0.52376   0.96692   0.96093   0.00000  Uiso   1.00
Gd41   Gd    0.64834   0.03603   0.05094   0.00000  Uiso   1.00
O42    O     0.66194   0.04166   0.25041   0.00000  Uiso   1.00
O43    O     0.54944   0.98353   0.17730   0.00000  Uiso   1.00
O44    O     0.52912   0.05911  -0.00749   0.00000  Uiso   1.00
O45    O     0.63762   0.12019   1.08863   0.00000  Uiso   1.00
O46    O     0.46606   0.85868   0.92223   0.00000  Uiso   1.00
O47    O     0.41310   0.90364  -0.07117   0.00000  Uiso   1.00
O48    O     0.49657   0.95256   0.74527   0.00000  Uiso   1.00
C49    C     0.40922   0.85072   0.92102   0.00000  Uiso   1.00
O50    O     0.59250   0.00749   0.85546   0.00000  Uiso   1.00
O51    O     0.53217   0.88024   0.93352   0.00000  Uiso   1.00
C52    C     0.58215   0.11477   0.04960   0.00000  Uiso   1.00
O53    O     0.64440   0.94564   0.00820   0.00000  Uiso   1.00
O54    O     0.70477   0.14423   0.07703   0.00000  Uiso   1.00
O55    O     0.75621   0.10053   1.05026   0.00000  Uiso   1.00
C56    C     0.60447   0.01403   0.27031   0.00000  Uiso   1.00
C57    C     0.75937   0.15290   0.06519   0.00000  Uiso   1.00
C58    C     0.58958   0.88804   0.96204   0.00000  Uiso   1.00
C59    C     0.55548  -0.01176   0.74393   0.00000  Uiso   1.00
C60    C     0.54088   0.50264   0.41897   0.00000  Uiso   1.00
C61    C     0.58724   0.49594   0.37128   0.00000  Uiso   1.00
C62    C     0.63520   0.49216   0.45508   0.00000  Uiso   1.00
C63    C     0.63563   0.49403   0.58306   0.00000  Uiso   1.00
C64    C     0.58813   0.49890   0.62934   0.00000  Uiso   1.00
C65    C     0.54244   0.50548   0.54734   0.00000  Uiso   1.00
H66    H     0.50586   0.50833   0.35935   0.00000  Uiso   1.00
H67    H     0.67329   0.48836   0.42506   0.00000  Uiso   1.00
H68    H     0.66999   0.48731   0.64230   0.00000  Uiso   1.00
H69    H     0.50891   0.51263   0.58379   0.00000  Uiso   1.00
C70    C     0.03941   0.52103   0.58217   0.00000  Uiso   1.00
C71    C     0.07977   0.51241   0.66902   0.00000  Uiso   1.00
C72    C     0.12440   0.49916   0.63131   0.00000  Uiso   1.00
C73    C     0.13220   0.50068   0.50839   0.00000  Uiso   1.00
C74    C     0.09466   0.51565   0.42406   0.00000  Uiso   1.00
C75    C     0.04781   0.52415   0.46416   0.00000  Uiso   1.00
H76    H     0.00597   0.53214   0.60623   0.00000  Uiso   1.00
H77    H     0.15488   0.48934   0.69564   0.00000  Uiso   1.00
H78    H     0.16813   0.49244   0.48180   0.00000  Uiso   1.00
H79    H     0.01861   0.53613   0.40370   0.00000  Uiso   1.00
C80    C     0.65183   0.03151   0.50667   0.00000  Uiso   1.00
C81    C     0.60126   0.02158   0.40238   0.00000  Uiso   1.00
C82    C     0.54209   1.01188   0.42135   0.00000  Uiso   1.00
C83    C     0.52720   0.99940   0.53250   0.00000  Uiso   1.00
C84    C     0.57537   0.00371   0.63218   0.00000  Uiso   1.00
C85    C     0.63951   0.02244   0.62322   0.00000  Uiso   1.00
H86    H     0.69930   0.04192   0.49584   0.00000  Uiso   1.00
H87    H     0.50316   1.00726   0.34413   0.00000  Uiso   1.00
H88    H     0.47792   0.98464   0.53819   0.00000  Uiso   1.00
H89    H     0.67669   0.02649   0.70253   0.00000  Uiso   1.00
C90    C     0.42269   0.52733   0.07280   0.00000  Uiso   1.00
C91    C     0.41879   0.49036  -0.03793   0.00000  Uiso   1.00
C92    C     0.35897   0.45371   0.85808   0.00000  Uiso   1.00
C93    C     0.30237   0.45355   0.86702   0.00000  Uiso   1.00
C94    C     0.30436   0.48770   0.98207   0.00000  Uiso   1.00
C95    C     0.36590   0.52473   0.08500   0.00000  Uiso   1.00
H96    H     0.47011   0.55710   0.14997   0.00000  Uiso   1.00
H97    H     0.35534   0.42648   0.76769   0.00000  Uiso   1.00
H98    H     0.25617   0.42680   0.78580   0.00000  Uiso   1.00
H99    H     0.37186   0.55586   0.17171   0.00000  Uiso   1.00
C100   C     0.90935   0.26613   0.96471   0.00000  Uiso   1.00
C101   C     0.91944   0.32684   1.00762   0.00000  Uiso   1.00
C102   C     0.87977   0.33113   1.08204   0.00000  Uiso   1.00
C103   C     0.83144   0.27638   1.10931   0.00000  Uiso   1.00
C104   C     0.81724   0.21415   1.05755   0.00000  Uiso   1.00
C105   C     0.85741   0.20963   0.98573   0.00000  Uiso   1.00
H106   H     0.94174   0.26206   0.91419   0.00000  Uiso   1.00
H107   H     0.89333   0.37952   1.12637   0.00000  Uiso   1.00
H108   H     0.80753   0.28298   1.17648   0.00000  Uiso   1.00
H109   H     0.84788   0.16261   0.94376   0.00000  Uiso   1.00
C110   C     0.90596   0.60211   0.14832   0.00000  Uiso   1.00
C111   C     0.89357   0.54357   0.08205   0.00000  Uiso   1.00
C112   C     0.82710   0.48770   1.02339   0.00000  Uiso   1.00
C113   C     0.77240   0.49057   1.02654   0.00000  Uiso   1.00
C114   C     0.78371   0.55033   0.08777   0.00000  Uiso   1.00
C115   C     0.85142   0.60462   0.15532   0.00000  Uiso   1.00
H116   H     0.95755   0.64430   0.19776   0.00000  Uiso   1.00
H117   H     0.81629   0.44116   0.97433   0.00000  Uiso   1.00
H118   H     0.72177   0.44819   0.97871   0.00000  Uiso   1.00
H119   H     0.86144   0.65045   0.20487   0.00000  Uiso   1.00
C120   C     0.30228   0.79138  -0.02221   0.00000  Uiso   1.00
C121   C     0.35020   0.78955  -0.07190   0.00000  Uiso   1.00
C122   C     0.34628   0.73089  -0.09545   0.00000  Uiso   1.00
C123   C     0.30036   0.67788  -0.05759   0.00000  Uiso   1.00
C124   C     0.25728   0.68333   0.00445   0.00000  Uiso   1.00
C125   C     0.25568   0.73830   0.01493   0.00000  Uiso   1.00
H126   H     0.30442   0.83506  -0.00179   0.00000  Uiso   1.00
H127   H     0.38023   0.72687  -0.13981   0.00000  Uiso   1.00
H128   H     0.29923   0.63404  -0.07553   0.00000  Uiso   1.00
H129   H     0.21973   0.74155   0.05420   0.00000  Uiso   1.00
C130   C     0.65729   0.84250   0.96047   0.00000  Uiso   1.00
C131   C     0.59339   0.83084   0.93983   0.00000  Uiso   1.00
C132   C     0.53539   0.76623   0.89661   0.00000  Uiso   1.00
C133   C     0.54107   0.71352   0.89038   0.00000  Uiso   1.00
C134   C     0.60542   0.72517   0.92411   0.00000  Uiso   1.00
C135   C     0.66306   0.78998   0.95144   0.00000  Uiso   1.00
H136   H     0.70313   0.89139  -0.00766   0.00000  Uiso   1.00
H137   H     0.48589   0.75585   0.87544   0.00000  Uiso   1.00
H138   H     0.49470   0.66369   0.86680   0.00000  Uiso   1.00
H139   H     0.71359   0.80129   0.97727   0.00000  Uiso   1.00
C140   C     0.64115   0.29333   0.10430   0.00000  Uiso   1.00
C141   C     0.57961   0.28620   0.06757   0.00000  Uiso   1.00
C142   C     0.51807   0.22355   0.03663   0.00000  Uiso   1.00
C143   C     0.51852   0.16780   0.03535   0.00000  Uiso   1.00
C144   C     0.58077   0.17427   0.06684   0.00000  Uiso   1.00
C145   C     0.64149   0.23794   0.10528   0.00000  Uiso   1.00
H146   H     0.68781   0.34139   0.12780   0.00000  Uiso   1.00
H147   H     0.47027   0.21664   0.00006   0.00000  Uiso   1.00
H148   H     0.47224   0.12020  -0.00361   0.00000  Uiso   1.00
H149   H     0.68945   0.24512   0.12923   0.00000  Uiso   1.00
loop_
_geom_bond_atom_site_label_1
_geom_bond_atom_site_label_2
_geom_bond_distance
_geom_bond_site_symmetry_2
_ccdc_geom_bond_type
Gd0    O6      2.206   .     S
Gd0    O8      2.203   .     S
Gd0    O11     2.247   .     S
Gd0    O3      2.248   1_556 S
Gd0    O4      2.263   1_556 S
Gd0    O7      2.250   1_556 S
Gd1    O2      2.337   .     S
Gd1    O13     2.222   .     S
Gd1    O14     2.241   .     S
Gd1    O5      2.263   1_554 S
Gd1    O10     2.255   1_554 S
Gd1    O15     2.205   1_554 S
O2     C16     1.293   .     A
O3     C16     1.304   .     A
O3     Gd0     2.248   1_554 S
O4     C12     1.298   .     A
O4     Gd0     2.263   1_554 S
O5     Gd1     2.263   1_556 S
O5     C12     1.301   1_556 A
O6     C9      1.274   .     A
O7     Gd0     2.250   1_554 S
O7     C9      1.288   1_554 A
O8     C19     1.242   .     A
C9     O7      1.288   1_556 A
C9     C141    1.448   1_556 S
O10    C19     1.248   .     A
O10    Gd1     2.255   1_556 S
O11    C18     1.260   1_556 A
C12    C91     1.463   .     S
C12    O5      1.301   1_554 A
O13    C18     1.260   .     A
O14    C17     1.284   .     A
O15    Gd1     2.205   1_556 S
O15    C17     1.284   1_556 A
C16    C61     1.510   .     S
C17    O15     1.284   1_554 A
C17    C134    1.470   1_554 S
C18    C114    1.475   .     S
C18    O11     1.260   1_554 A
C19    C64     1.508   .     S
Gd20   O28     2.190   .     S
Gd20   O23     2.206   1_556 S
Gd20   O24     2.266   1_556 S
Gd20   O26     2.282   1_455 S
Gd20   O27     2.279   1_456 S
Gd20   O31     2.264   1_455 S
Gd21   O22     2.321   .     S
Gd21   O25     2.279   .     S
Gd21   O34     2.228   .     S
Gd21   O30     2.247   1_554 S
Gd21   O33     2.245   1_554 S
Gd21   O35     2.258   1_554 S
O22    C36     1.279   .     A
O23    C36     1.256   .     A
O23    Gd20    2.206   1_554 S
O24    C32     1.265   .     A
O24    Gd20    2.266   1_554 S
O25    C32     1.283   .     A
O26    Gd20    2.282   1_655 S
O26    C29     1.317   1_556 A
O27    C29     1.273   .     A
O27    Gd20    2.279   1_654 S
O28    C39     1.267   .     A
C29    C111    1.486   .     S
C29    O26     1.317   1_554 A
O30    C39     1.253   .     A
O30    Gd21    2.247   1_556 S
O31    C38     1.285   .     A
O31    Gd20    2.264   1_655 S
C32    C124    1.482   .     S
O33    Gd21    2.245   1_556 S
O33    C38     1.267   1_455 A
O34    C37     1.277   1_554 A
O35    C37     1.286   .     A
O35    Gd21    2.258   1_556 S
C36    C74     1.489   .     S
C37    C94     1.470   .     S
C37    O34     1.277   1_556 A
C38    C101    1.467   .     S
C38    O33     1.267   1_655 A
C39    C71     1.461   .     S
Gd40   O46     2.225   .     S
Gd40   O48     2.290   .     S
Gd40   O51     2.291   .     S
Gd40   O43     2.290   1_556 S
Gd40   O44     2.232   1_566 S
Gd40   O47     2.219   1_556 S
Gd41   O42     2.156   .     S
Gd41   O54     2.244   .     S
Gd41   O45     2.269   1_554 S
Gd41   O50     2.130   1_554 S
Gd41   O53     2.209   1_545 S
Gd41   O55     2.256   1_554 S
O42    C56     1.281   .     A
O43    Gd40    2.290   1_554 S
O43    C56     1.281   1_565 A
O44    C52     1.248   .     A
O44    Gd40    2.232   1_544 S
O45    Gd41    2.269   1_556 S
O45    C52     1.281   1_556 A
O46    C49     1.301   .     A
O47    Gd40    2.219   1_554 S
O47    C49     1.277   1_554 A
O48    C59     1.237   1_565 A
C49    O47     1.277   1_556 A
C49    C121    1.476   1_556 S
O50    C59     1.243   .     A
O50    Gd41    2.130   1_556 S
O51    C58     1.288   .     A
C52    C144    1.507   .     S
C52    O45     1.281   1_554 A
O53    Gd41    2.209   1_565 S
O53    C58     1.276   1_554 A
O54    C57     1.277   .     A
O55    Gd41    2.256   1_556 S
O55    C57     1.267   1_556 A
C56    C81     1.477   .     S
C56    O43     1.281   1_545 A
C57    O55     1.267   1_554 A
C57    C104    1.467   1_554 S
C58    C131    1.486   .     S
C58    O53     1.276   1_556 A
C59    C84     1.449   .     S
C59    O48     1.237   1_545 A
C60    C61     1.421   .     A
C60    C65     1.413   .     A
C60    H66     1.076   .     S
C61    C62     1.421   .     A
C62    C63     1.417   .     A
C62    H67     1.097   .     S
C63    C64     1.416   .     A
C63    H68     1.078   .     S
C64    C65     1.413   .     A
C65    H69     1.068   .     S
C70    C71     1.383   .     A
C70    C75     1.374   .     A
C70    H76     1.066   .     S
C71    C72     1.421   .     A
C72    C73     1.419   .     A
C72    H77     1.092   .     S
C73    C74     1.428   .     A
C73    H78     1.091   .     S
C74    C75     1.416   .     A
C75    H79     1.085   .     S
C80    C81     1.420   .     A
C80    C85     1.409   .     A
C80    H86     1.088   .     S
C81    C82     1.405   1_545 A
C82    C83     1.386   .     A
C82    H87     1.106   .     S
C82    C81     1.405   1_565 A
C83    H88     1.080   .     S
C83    C84     1.413   1_565 A
C84    C85     1.415   .     A
C84    C83     1.413   1_545 A
C85    H89     1.099   .     S
C90    C91     1.388   .     A
C90    C95     1.398   .     A
C90    H96     1.083   .     S
C91    C92     1.405   1_554 A
C92    C93     1.414   .     A
C92    H97     1.093   .     S
C92    C91     1.405   1_556 A
C93    C94     1.414   .     A
C93    H98     1.092   .     S
C94    C95     1.422   1_556 A
C95    H99     1.084   .     S
C95    C94     1.422   1_554 A
C100   C101    1.406   .     A
C100   C105    1.407   .     A
C100   H106    1.095   .     S
C101   C102    1.427   .     A
C102   C103    1.383   .     A
C102   H107    1.084   .     S
C103   C104    1.414   .     A
C103   H108    1.079   .     S
C104   C105    1.420   .     A
C104   C57     1.467   1_556 S
C105   H109    1.088   .     S
C110   C111    1.393   .     A
C110   C115    1.394   .     A
C110   H116    1.085   .     S
C111   C112    1.402   1_554 A
C112   C113    1.395   .     A
C112   H117    1.084   .     S
C112   C111    1.402   1_556 A
C113   H118    1.071   .     S
C113   C114    1.415   1_556 A
C114   C115    1.421   .     A
C114   C113    1.415   1_554 A
C115   H119    1.079   .     S
C120   C121    1.411   .     A
C120   C125    1.404   .     A
C120   H126    1.064   .     S
C121   C122    1.414   .     A
C121   C49     1.476   1_554 S
C122   C123    1.402   .     A
C122   H127    1.087   .     S
C123   C124    1.421   .     A
C123   H128    1.081   .     S
C124   C125    1.399   .     A
C125   H129    1.092   .     S
C130   C131    1.403   .     A
C130   C135    1.400   .     A
C130   H136    1.076   1_556 S
C131   C132    1.400   .     A
C132   C133    1.405   .     A
C132   H137    1.071   .     S
C133   C134    1.411   .     A
C133   H138    1.101   .     S
C134   C135    1.413   .     A
C134   C17     1.470   1_556 S
C135   H139    1.086   .     S
H136   C130    1.076   1_554 S
C140   C141    1.399   .     A
C140   C145    1.405   .     A
C140   H146    1.080   .     S
C141   C142    1.415   .     A
C141   C9      1.448   1_554 S
C142   C143    1.412   .     A
C142   H147    1.080   .     S
C143   C144    1.421   .     A
C143   H148    1.064   .     S
C144   C145    1.413   .     A
C145   H149    1.068   .     S
