data_kag+N144+E15
_audit_creation_date              2025-01-21
_audit_creation_method            'Materials Studio'
_symmetry_space_group_name_H-M    'P1'
_symmetry_Int_Tables_number       1
_symmetry_cell_setting            triclinic
loop_
_symmetry_equiv_pos_as_xyz
  x,y,z
_cell_length_a                    23.1220
_cell_length_b                    22.7189
_cell_length_c                    10.6574
_cell_angle_alpha                 82.8578
_cell_angle_beta                  92.1270
_cell_angle_gamma                 123.3559
loop_
_atom_site_label
_atom_site_type_symbol
_atom_site_fract_x
_atom_site_fract_y
_atom_site_fract_z
_atom_site_U_iso_or_equiv
_atom_site_adp_type
_atom_site_occupancy
C0     C     0.67032   0.55376   0.93666   0.00000  Uiso   1.00
Er1    Er    0.42751   0.51573   0.00367   0.00000  Uiso   1.00
Er2    Er    0.54120   0.55235  -0.00061   0.00000  Uiso   1.00
C3     C     0.53316   0.67960  -0.02499   0.00000  Uiso   1.00
O4     O     0.53741   0.55151   0.79263   0.00000  Uiso   1.00
C5     C     0.48220   0.53280   0.26431   0.00000  Uiso   1.00
C6     C     0.44636   0.39295   0.01427   0.00000  Uiso   1.00
C7     C     0.33586   0.54979   1.01214   0.00000  Uiso   1.00
O8     O     0.65283   0.54809   0.82718   0.00000  Uiso   1.00
O9     O     0.65071   0.58527   1.01393   0.00000  Uiso   1.00
O10    O     0.50919   0.44205   0.02538   0.00000  Uiso   1.00
O11    O     0.40041   0.40743   0.00462   0.00000  Uiso   1.00
O12    O     0.53897   0.55451   0.20571   0.00000  Uiso   1.00
O13    O     0.42624   0.50554   0.20583   0.00000  Uiso   1.00
C14    C     0.48392   0.54311   0.73664   0.00000  Uiso   1.00
O15    O     0.43152   0.52890   0.80070   0.00000  Uiso   1.00
O16    O     0.57707   0.66352  -0.03311   0.00000  Uiso   1.00
O17    O     0.46908   0.63037  -0.00216   0.00000  Uiso   1.00
O18    O     0.31914   0.48667   1.01022   0.00000  Uiso   1.00
O19    O     0.40111   0.59389   1.00610   0.00000  Uiso   1.00
C20    C     0.91753   0.34510   1.01852   0.00000  Uiso   1.00
Er21   Er    0.02814   0.61725   0.04284   0.00000  Uiso   1.00
Er22   Er    0.97820   0.49816   0.07463   0.00000  Uiso   1.00
C23    C     0.13162   0.57066   0.05509   0.00000  Uiso   1.00
O24    O     0.97039   0.49709   0.87403   0.00000  Uiso   1.00
C25    C     1.00010   0.55657   0.32139   0.00000  Uiso   1.00
C26    C     0.87159   0.53584   0.05302   0.00000  Uiso   1.00
C27    C     0.13904   0.74764   1.03078   0.00000  Uiso   1.00
O28    O     0.96700   0.37021   0.94521   0.00000  Uiso   1.00
O29    O     0.92029   0.38108   1.11701   0.00000  Uiso   1.00
O30    O     0.87782   0.48399   0.08309   0.00000  Uiso   1.00
O31    O     0.92518   0.59797   0.02884   0.00000  Uiso   1.00
O32    O     0.98481   0.50159   0.27398   0.00000  Uiso   1.00
O33    O     0.02252   0.61495   0.24996   0.00000  Uiso   1.00
C34    C    -0.00354   0.55360   0.79674   0.00000  Uiso   1.00
O35    O     0.02958   0.61425   0.83734   0.00000  Uiso   1.00
O36    O     0.07695   0.50865   0.06465   0.00000  Uiso   1.00
O37    O     0.12732   0.62474   0.05240   0.00000  Uiso   1.00
O38    O     0.07800   0.73274   1.01940   0.00000  Uiso   1.00
O39    O     0.14113   0.69244   1.04385   0.00000  Uiso   1.00
C40    C     0.45624   0.18240   0.96125   0.00000  Uiso   1.00
Er41   Er    0.52999   1.00140   0.06635   0.00000  Uiso   1.00
Er42   Er    0.52212   0.09790   0.04049   0.00000  Uiso   1.00
C43    C     0.38097   0.95871   0.05846   0.00000  Uiso   1.00
O44    O     0.52435   0.09844   0.83416   0.00000  Uiso   1.00
C45    C     0.53013   0.05384   0.31533   0.00000  Uiso   1.00
C46    C     0.67113   0.13890   0.03843   0.00000  Uiso   1.00
C47    C     0.54140   0.90198   0.99105   0.00000  Uiso   1.00
O48    O     0.42310   0.13333   0.89890   0.00000  Uiso   1.00
O49    O     0.51576   0.19323   1.01923   0.00000  Uiso   1.00
O50    O     0.63489   0.16569   0.03218   0.00000  Uiso   1.00
O51    O     0.64190   0.07195   0.05645   0.00000  Uiso   1.00
O52    O     0.52313   0.09904   0.24598   0.00000  Uiso   1.00
O53    O     0.52974   0.00571   0.26651   0.00000  Uiso   1.00
C54    C     0.53242   0.05399   0.78889   0.00000  Uiso   1.00
O55    O     0.53295   0.00558   0.86249   0.00000  Uiso   1.00
O56    O     0.40981   0.02559   0.04955   0.00000  Uiso   1.00
O57    O     0.41768   0.93256   0.06999   0.00000  Uiso   1.00
O58    O     0.53917   0.94843   0.91523   0.00000  Uiso   1.00
O59    O     0.53617   0.90837   1.10472   0.00000  Uiso   1.00
N60    N     0.43472   0.56721   0.54582   0.00000  Uiso   1.00
N61    N     0.43380   0.56365   0.42374   0.00000  Uiso   1.00
C62    C     0.47849   0.54672   0.39384   0.00000  Uiso   1.00
C63    C     0.51066   0.53991   0.50327   0.00000  Uiso   1.00
C64    C     0.47984   0.55236   0.59820   0.00000  Uiso   1.00
H65    H     0.54648   0.52322   0.51356   0.00000  Uiso   1.00
H66    H     0.40298   0.57753   0.59290   0.00000  Uiso   1.00
H67    H     0.40164   0.57134   0.36212   0.00000  Uiso   1.00
N68    N     0.92816   0.48299   0.50856   0.00000  Uiso   1.00
N69    N     0.92783   0.48165   0.63190   0.00000  Uiso   1.00
C70    C     0.98197   0.54370   0.66303   0.00000  Uiso   1.00
C71    C     0.01856   0.58787   0.55266   0.00000  Uiso   1.00
C72    C     0.98263   0.54583   0.45680   0.00000  Uiso   1.00
H73    H     0.06595   0.64011   0.54409   0.00000  Uiso   1.00
H74    H     0.89265   0.44012   0.46101   0.00000  Uiso   1.00
H75    H     0.89109   0.43798   0.69380   0.00000  Uiso   1.00
N76    N     0.59061   0.03969   0.62081   0.00000  Uiso   1.00
N77    N     0.58971   0.03932   0.49779   0.00000  Uiso   1.00
C78    C     0.54708   0.05857   0.44922   0.00000  Uiso   1.00
C79    C     0.52004   0.07338   0.54663   0.00000  Uiso   1.00
C80    C     0.54862   0.05919   0.65465   0.00000  Uiso   1.00
H81    H     0.48113   0.08600   0.54122   0.00000  Uiso   1.00
H82    H     0.61794   0.02431   0.68111   0.00000  Uiso   1.00
H83    H     0.61623   0.02362   0.44850   0.00000  Uiso   1.00
N84    N     0.25912   0.64799   0.03098   0.00000  Uiso   1.00
N85    N     0.31220   0.64229   0.01957   0.00000  Uiso   1.00
C86    C     0.28869   0.57322   1.02247   0.00000  Uiso   1.00
C87    C     0.21688   0.53248   1.03794   0.00000  Uiso   1.00
C88    C     0.20050   0.58265   0.04332   0.00000  Uiso   1.00
H89    H     0.18199   0.47531   1.04479   0.00000  Uiso   1.00
H90    H     0.26330   0.69617   0.02880   0.00000  Uiso   1.00
H91    H     0.36370   0.68542   0.00751   0.00000  Uiso   1.00
N92    N     0.78578   0.16748  -0.03525   0.00000  Uiso   1.00
N93    N     0.85088   0.22242   0.95625   0.00000  Uiso   1.00
C94    C     0.85417   0.27557   1.00693   0.00000  Uiso   1.00
C95    C     0.78860   0.25386   1.04894   0.00000  Uiso   1.00
C96    C     0.74676   0.18499   0.02045   0.00000  Uiso   1.00
H97    H     0.77353   0.28387   1.09391   0.00000  Uiso   1.00
H98    H     0.76839   0.11941  -0.06922   0.00000  Uiso   1.00
H99    H     0.89221   0.22313   0.91770   0.00000  Uiso   1.00
N100   N     0.69099   0.46928   0.06684   0.00000  Uiso   1.00
N101   N     0.74433   0.46493   0.09893   0.00000  Uiso   1.00
C102   C     0.80232   0.52300   0.04217   0.00000  Uiso   1.00
C103   C     0.78535   0.56594   0.96968   0.00000  Uiso   1.00
C104   C     0.71423   0.52954   0.98749   0.00000  Uiso   1.00
H105   H     0.81968   0.61645   0.91298   0.00000  Uiso   1.00
H106   H     0.63977   0.43182   0.09946   0.00000  Uiso   1.00
H107   H     0.74102   0.42321   0.15954   0.00000  Uiso   1.00
N108   N     0.19856   0.87879   1.02328   0.00000  Uiso   1.00
N109   N     0.26216   0.93439   0.03378   0.00000  Uiso   1.00
C110   C     0.30532   0.91183   0.05137   0.00000  Uiso   1.00
C111   C     0.26763   0.83884   1.05202   0.00000  Uiso   1.00
C112   C     0.20023   0.82002   1.03345   0.00000  Uiso   1.00
H113   H     0.28685   0.80467   1.06365   0.00000  Uiso   1.00
H114   H     0.15502   0.88134   1.00909   0.00000  Uiso   1.00
H115   H     0.27568   0.98674   0.02624   0.00000  Uiso   1.00
N116   N     0.59302   0.80079   0.85505   0.00000  Uiso   1.00
N117   N     0.59155   0.85822   0.85430   0.00000  Uiso   1.00
C118   C     0.55112   0.84820   0.95320   0.00000  Uiso   1.00
C119   C     0.52599   0.78208   1.01981   0.00000  Uiso   1.00
C120   C     0.55363   0.75364  -0.04554   0.00000  Uiso   1.00
H121   H     0.49202   0.75789   0.10341   0.00000  Uiso   1.00
H122   H     0.61762   0.79285   0.78516   0.00000  Uiso   1.00
H123   H     0.61685   0.90278   0.78655   0.00000  Uiso   1.00
N124   N     0.36844   0.21386   0.95064   0.00000  Uiso   1.00
N125   N     0.36514   0.26846   0.96859   0.00000  Uiso   1.00
C126   C     0.42740   0.32037   0.00490   0.00000  Uiso   1.00
C127   C     0.47214   0.29737   1.01171   0.00000  Uiso   1.00
C128   C     0.43273   0.22973   0.97559   0.00000  Uiso   1.00
H129   H     0.52647   0.32693   1.03313   0.00000  Uiso   1.00
H130   H     0.32768   0.16713   0.91948   0.00000  Uiso   1.00
H131   H     0.32176   0.27104  -0.04882   0.00000  Uiso   1.00
loop_
_geom_bond_atom_site_label_1
_geom_bond_atom_site_label_2
_geom_bond_distance
_geom_bond_site_symmetry_2
_ccdc_geom_bond_type
C0     O8      1.219   .     D
C0     O9      1.388   .     S
C0     C104    1.458   .     S
Er1    O11     2.179   .     S
Er1    O13     2.138   .     S
Er1    O17     2.219   .     S
Er1    O15     2.145   1_554 S
Er1    O18     2.214   1_554 S
Er1    O19     2.175   1_554 S
Er2    O10     2.169   .     S
Er2    O12     2.209   .     S
Er2    O16     2.165   .     S
Er2    O4      2.204   1_554 S
Er2    O9      2.216   1_554 S
C3     O16     1.263   .     A
C3     O17     1.282   .     A
C3     C120    1.464   .     S
O4     C14     1.279   .     A
O4     Er2     2.204   1_556 S
C5     O12     1.276   .     A
C5     O13     1.265   .     A
C5     C62     1.470   .     S
C6     O10     1.268   .     A
C6     O11     1.271   .     A
C6     C126    1.471   .     S
C7     O18     1.266   .     A
C7     O19     1.270   .     A
C7     C86     1.465   .     S
O9     Er2     2.216   1_556 S
C14    O15     1.271   .     A
C14    C64     1.471   .     S
O15    Er1     2.145   1_556 S
O18    Er1     2.214   1_556 S
O19    Er1     2.175   1_556 S
C20    O28     1.217   .     D
C20    O29     1.387   .     S
C20    C94     1.465   .     S
Er21   O33     2.208   .     S
Er21   O37     2.204   .     S
Er21   O31     2.174   1_455 S
Er21   O35     2.202   1_554 S
Er21   O38     2.193   1_554 S
Er21   O39     2.200   1_554 S
Er22   O30     2.164   .     S
Er22   O32     2.132   .     S
Er22   O24     2.141   1_554 S
Er22   O29     2.214   1_554 S
Er22   O36     2.167   1_655 S
C23    O36     1.268   .     A
C23    O37     1.283   .     A
C23    C88     1.468   .     S
O24    Er22    2.141   1_556 S
O24    C34     1.270   1_655 A
C25    O32     1.264   .     A
C25    C72     1.467   .     S
C25    O33     1.277   1_655 A
C26    O30     1.265   .     A
C26    O31     1.267   .     A
C26    C102    1.464   .     S
C27    O38     1.262   .     A
C27    O39     1.272   .     A
C27    C112    1.469   .     S
O29    Er22    2.214   1_556 S
O31    Er21    2.174   1_655 S
O33    C25     1.277   1_455 A
C34    O35     1.279   .     A
C34    O24     1.270   1_455 A
C34    C70     1.468   1_455 S
O35    Er21    2.202   1_556 S
O36    Er22    2.167   1_455 S
O38    Er21    2.193   1_556 S
O39    Er21    2.200   1_556 S
C40    O48     1.216   .     D
C40    O49     1.392   .     S
C40    C128    1.471   .     S
Er41   O57     2.172   .     S
Er41   O51     2.166   1_565 S
Er41   O53     2.148   1_565 S
Er41   O55     2.165   1_564 S
Er41   O58     2.208   1_554 S
Er41   O59     2.183   1_554 S
Er42   O50     2.179   .     S
Er42   O52     2.192   .     S
Er42   O56     2.177   .     S
Er42   O44     2.200   1_554 S
Er42   O49     2.234   1_554 S
C43    O57     1.272   .     A
C43    C110    1.470   .     S
C43    O56     1.272   1_565 A
O44    C54     1.274   .     A
O44    Er42    2.200   1_556 S
C45    O52     1.270   .     A
C45    O53     1.264   .     A
C45    C78     1.467   .     S
C46    O50     1.274   .     A
C46    O51     1.270   .     A
C46    C96     1.467   .     S
C47    O58     1.270   .     A
C47    O59     1.256   .     A
C47    C118    1.462   .     S
O49    Er42    2.234   1_556 S
O51    Er41    2.166   1_545 S
O53    Er41    2.148   1_545 S
C54    O55     1.275   .     A
C54    C80     1.466   .     S
O55    Er41    2.165   1_546 S
O56    C43     1.272   1_545 A
O58    Er41    2.208   1_556 S
O59    Er41    2.183   1_556 S
N60    N61     1.312   .     A
N60    C64     1.346   .     A
N60    H66     1.045   .     S
N61    C62     1.345   .     A
N61    H67     1.045   .     S
C62    C63     1.398   .     A
C63    C64     1.399   .     A
C63    H65     1.082   .     S
N68    N69     1.311   .     A
N68    C72     1.344   .     A
N68    H74     1.045   .     S
N69    C70     1.345   .     A
N69    H75     1.046   .     S
C70    C71     1.398   1_655 A
C70    C34     1.468   1_655 S
C71    H73     1.081   .     S
C71    C70     1.398   1_455 A
C71    C72     1.398   1_455 A
C72    C71     1.398   1_655 A
N76    N77     1.311   .     A
N76    C80     1.344   .     A
N76    H82     1.045   .     S
N77    C78     1.346   .     A
N77    H83     1.044   .     S
C78    C79     1.396   .     A
C79    C80     1.397   .     A
C79    H81     1.082   .     S
N84    N85     1.314   .     A
N84    C88     1.345   .     A
N84    H90     1.042   .     S
N85    H91     1.045   .     S
N85    C86     1.345   1_554 A
C86    C87     1.390   .     A
C86    N85     1.345   1_556 A
C87    H89     1.082   .     S
C87    C88     1.392   1_556 A
C88    C87     1.392   1_554 A
N92    C96     1.349   .     A
N92    H98     1.044   .     S
N92    N93     1.322   1_554 A
N93    C94     1.347   .     A
N93    H99     1.045   .     S
N93    N92     1.322   1_556 A
C94    C95     1.384   .     A
C95    H97     1.082   .     S
C95    C96     1.381   1_556 A
C96    C95     1.381   1_554 A
N100   N101    1.320   .     A
N100   H106    1.047   .     S
N100   C104    1.347   1_554 A
N101   C102    1.349   .     A
N101   H107    1.046   .     S
C102   C103    1.383   1_554 A
C103   C104    1.383   .     A
C103   H105    1.083   .     S
C103   C102    1.383   1_556 A
C104   N100    1.347   1_556 A
N108   C112    1.348   .     A
N108   H114    1.044   .     S
N108   N109    1.323   1_556 A
N109   C110    1.349   .     A
N109   H115    1.043   .     S
N109   N108    1.323   1_554 A
C110   C111    1.385   1_554 A
C111   C112    1.384   .     A
C111   H113    1.080   .     S
C111   C110    1.385   1_556 A
N116   N117    1.323   .     A
N116   H122    1.043   .     S
N116   C120    1.348   1_556 A
N117   C118    1.348   .     A
N117   H123    1.042   .     S
C118   C119    1.380   .     A
C119   C120    1.382   1_556 A
C119   H121    1.081   1_556 S
C120   N116    1.348   1_554 A
C120   C119    1.382   1_554 A
H121   C119    1.081   1_554 S
N124   N125    1.321   .     A
N124   C128    1.347   .     A
N124   H130    1.044   .     S
N125   C126    1.348   1_556 A
N125   H131    1.045   1_556 S
C126   N125    1.348   1_554 A
C126   C127    1.388   1_554 A
C127   C128    1.386   .     A
C127   H129    1.082   .     S
C127   C126    1.388   1_556 A
H131   N125    1.045   1_554 S
