data_kag+N505+E28
_audit_creation_date              2025-01-21
_audit_creation_method            'Materials Studio'
_symmetry_space_group_name_H-M    'P1'
_symmetry_Int_Tables_number       1
_symmetry_cell_setting            triclinic
loop_
_symmetry_equiv_pos_as_xyz
  x,y,z
_cell_length_a                    40.0837
_cell_length_b                    35.4247
_cell_length_c                    21.7233
_cell_angle_alpha                 103.6947
_cell_angle_beta                  82.8445
_cell_angle_gamma                 106.6410
loop_
_atom_site_label
_atom_site_type_symbol
_atom_site_fract_x
_atom_site_fract_y
_atom_site_fract_z
_atom_site_U_iso_or_equiv
_atom_site_adp_type
_atom_site_occupancy
Yb0    Yb    0.55029   0.50890   0.92886   0.00000  Uiso   1.00
Yb1    Yb    0.45425   0.50113   0.08956   0.00000  Uiso   1.00
C2     C     0.39176   0.48883   0.07699   0.00000  Uiso   1.00
O3     O     0.52008   0.48679   0.85017   0.00000  Uiso   1.00
O4     O     0.55675   0.54736   0.86521   0.00000  Uiso   1.00
O5     O     0.50845   0.53074  -0.01795   0.00000  Uiso   1.00
O6     O     0.46385   0.54828   1.03532   0.00000  Uiso   1.00
O7     O     0.59692   0.49493   0.89188   0.00000  Uiso   1.00
O8     O     0.59350   0.53594  -0.01527   0.00000  Uiso   1.00
O9     O     0.48543   0.53018   0.16610   0.00000  Uiso   1.00
O10    O     0.45149   0.46845   0.15996   0.00000  Uiso   1.00
C11    C     0.53385   0.51982   0.83048   0.00000  Uiso   1.00
O12    O     0.53622   0.45688  -0.02578   0.00000  Uiso   1.00
O13    O     0.49641   0.47938   1.03704   0.00000  Uiso   1.00
O14    O     0.40688   0.51366   0.12560   0.00000  Uiso   1.00
C15    C     0.48898   0.55427  -0.00646   0.00000  Uiso   1.00
O16    O     0.41050   0.46857   1.03745   0.00000  Uiso   1.00
C17    C     0.61197   0.51674   0.94260   0.00000  Uiso   1.00
C18    C     0.47323   0.49927   0.19181   0.00000  Uiso   1.00
C19    C     0.51104   0.45131   0.01611   0.00000  Uiso   1.00
Yb20   Yb    0.03283   0.54776   0.94015   0.00000  Uiso   1.00
Yb21   Yb    0.97151   0.44843   0.04635   0.00000  Uiso   1.00
C22    C     0.91386   0.40095   0.02346   0.00000  Uiso   1.00
O23    O     0.01857   0.50424   0.85593   0.00000  Uiso   1.00
O24    O     1.02957   0.56907   0.85964   0.00000  Uiso   1.00
O25    O     0.97848   0.54412   0.96809   0.00000  Uiso   1.00
O26    O     0.97165   0.48180   0.97494   0.00000  Uiso   1.00
O27    O     0.08701   0.56315   0.92331   0.00000  Uiso   1.00
O28    O     0.06133   0.60174  -0.00332   0.00000  Uiso   1.00
O29    O     0.98652   0.49210   0.12993   0.00000  Uiso   1.00
O30    O    -0.02522   0.42726   0.12692   0.00000  Uiso   1.00
C31    C     1.02120   0.53276   0.82640   0.00000  Uiso   1.00
O32    O     0.03300   0.51415   0.01145   0.00000  Uiso   1.00
O33    O     0.02571   0.45160   0.01795   0.00000  Uiso   1.00
O34    O     0.91745   0.43444   0.06462   0.00000  Uiso   1.00
C35    C     0.95884   0.51155   0.98168   0.00000  Uiso   1.00
O36    O     0.94183   0.39454   0.99124   0.00000  Uiso   1.00
C37    C     0.08976   0.59620   0.96538   0.00000  Uiso   1.00
C38    C    -0.01637   0.46364   0.15973   0.00000  Uiso   1.00
C39    C     0.04569   0.48430   0.00520   0.00000  Uiso   1.00
Yb40   Yb    0.45535   0.96804   0.06497   0.00000  Uiso   1.00
Yb41   Yb    0.54585   0.03364   0.93833   0.00000  Uiso   1.00
C42    C     0.59320   0.09394   0.97590   0.00000  Uiso   1.00
O43    O     0.49306   0.97951   0.13143   0.00000  Uiso   1.00
O44    O     0.43760  -0.02660   0.16060   0.00000  Uiso   1.00
O45    O     0.46362   0.03191   0.07148   0.00000  Uiso   1.00
O46    O     0.51649   0.03566   0.02878   0.00000  Uiso   1.00
O47    O     0.43536   0.90534   0.05340   0.00000  Uiso   1.00
O48    O     0.40760   0.94207   1.02194   0.00000  Uiso   1.00
O49    O     0.50858   0.02309   0.87156   0.00000  Uiso   1.00
O50    O     0.56408   1.02906   0.84292   0.00000  Uiso   1.00
C51    C     0.46888  -0.02071   0.17680   0.00000  Uiso   1.00
O52    O     0.48406   0.96536   0.97346   0.00000  Uiso   1.00
O53    O     0.53697   0.96964   0.93014   0.00000  Uiso   1.00
O54    O     0.56616   0.09632   0.95190   0.00000  Uiso   1.00
C55    C     0.49155   0.05199   0.04688   0.00000  Uiso   1.00
O56    O     0.59321   0.05875  -0.01703   0.00000  Uiso   1.00
C57    C     0.40793   0.90720   0.03001   0.00000  Uiso   1.00
C58    C     0.53288   1.02335   0.82642   0.00000  Uiso   1.00
C59    C     0.50894   0.94904   0.95372   0.00000  Uiso   1.00
C60    C     0.49314   0.50883   0.38508   0.00000  Uiso   1.00
C61    C     0.51385   0.53694   0.35036   0.00000  Uiso   1.00
C62    C     0.50840   0.53283   0.28653   0.00000  Uiso   1.00
C63    C     0.48229   0.50042   0.25609   0.00000  Uiso   1.00
C64    C     0.46275   0.47132   0.28980   0.00000  Uiso   1.00
C65    C     0.46801   0.47555   0.35370   0.00000  Uiso   1.00
C66    C     0.49713   0.51439   0.45383   0.00000  Uiso   1.00
N67    N     0.47454   0.48961   0.48839   0.00000  Uiso   1.00
N68    N     0.47819   0.49411   0.55000   0.00000  Uiso   1.00
C69    C     0.50450   0.52363   0.57973   0.00000  Uiso   1.00
N70    N     0.52691   0.54875   0.54537   0.00000  Uiso   1.00
N71    N     0.52322   0.54430   0.48367   0.00000  Uiso   1.00
C72    C     0.50995   0.52640   0.64708   0.00000  Uiso   1.00
C73    C     0.53922   0.55412   0.67661   0.00000  Uiso   1.00
C74    C     0.54632   0.55333   0.73769   0.00000  Uiso   1.00
C75    C     0.52433   0.52475   0.77008   0.00000  Uiso   1.00
C76    C     0.49419   0.49850   0.74199   0.00000  Uiso   1.00
C77    C     0.48704   0.49932   0.68121   0.00000  Uiso   1.00
H78    H     0.53367   0.56270   0.37283   0.00000  Uiso   1.00
H79    H     0.52405   0.55560   0.26147   0.00000  Uiso   1.00
H80    H     0.44248   0.44608   0.26748   0.00000  Uiso   1.00
H81    H     0.45185   0.45309   0.37878   0.00000  Uiso   1.00
H82    H     0.55735   0.57543   0.65170   0.00000  Uiso   1.00
H83    H     0.56983   0.57377   0.75830   0.00000  Uiso   1.00
H84    H     0.47657   0.47651   0.76638   0.00000  Uiso   1.00
H85    H     0.46411   0.47774   0.66028   0.00000  Uiso   1.00
C86    C     1.00834   0.51120   0.62601   0.00000  Uiso   1.00
C87    C     1.01482   0.55040   0.66371   0.00000  Uiso   1.00
C88    C     1.01846   0.55711   0.72878   0.00000  Uiso   1.00
C89    C     1.01566   0.52483   0.75794   0.00000  Uiso   1.00
C90    C     1.00865   0.48551   0.72069   0.00000  Uiso   1.00
C91    C     1.00504   0.47875   0.65535   0.00000  Uiso   1.00
C92    C     1.00538   0.50447   0.55658   0.00000  Uiso   1.00
N93    N     0.99967   0.46683   0.51942   0.00000  Uiso   1.00
N94    N     0.99715   0.46093   0.45712   0.00000  Uiso   1.00
C95    C     1.00025   0.49238   0.42915   0.00000  Uiso   1.00
N96    N     1.00600   0.53004   0.46630   0.00000  Uiso   1.00
N97    N     1.00853   0.53594   0.52861   0.00000  Uiso   1.00
C98    C     0.99708   0.48557   0.35980   0.00000  Uiso   1.00
C99    C     0.99990   0.51791   0.33049   0.00000  Uiso   1.00
C100   C     0.99616   0.51103   0.26520   0.00000  Uiso   1.00
C101   C    -0.01059   0.47171   0.22804   0.00000  Uiso   1.00
C102   C    -0.01300   0.43953   0.25715   0.00000  Uiso   1.00
C103   C    -0.00921   0.44635   0.32218   0.00000  Uiso   1.00
H104   H     1.01738   0.57609   0.64291   0.00000  Uiso   1.00
H105   H     1.02377   0.58776   0.75622   0.00000  Uiso   1.00
H106   H     0.00630   0.46003   0.74188   0.00000  Uiso   1.00
H107   H    -0.00010   0.44812   0.62781   0.00000  Uiso   1.00
H108   H     1.00472   0.54853   0.35800   0.00000  Uiso   1.00
H109   H     0.99810   0.53639   0.24397   0.00000  Uiso   1.00
H110   H    -0.01813   0.40886   0.22975   0.00000  Uiso   1.00
H111   H    -0.01151   0.42074   0.34299   0.00000  Uiso   1.00
C112   C     0.48889  -0.00588   0.37244   0.00000  Uiso   1.00
C113   C     0.45526   0.99004   0.35485   0.00000  Uiso   1.00
C114   C     0.44898   0.98552   0.29138   0.00000  Uiso   1.00
C115   C     0.47616  -0.01497   0.24393   0.00000  Uiso   1.00
C116   C     0.50986  -0.01065   0.26127   0.00000  Uiso   1.00
C117   C     0.51617  -0.00615   0.32491   0.00000  Uiso   1.00
C118   C     0.49526  -0.00169   0.43988   0.00000  Uiso   1.00
N119   N     0.52758   0.00194   0.45738   0.00000  Uiso   1.00
N120   N     0.53316   0.00534   0.51787   0.00000  Uiso   1.00
C121   C     0.50668   0.00522   0.56351   0.00000  Uiso   1.00
N122   N     0.47437   1.00167   0.54603   0.00000  Uiso   1.00
N123   N     0.46879   0.99828   0.48553   0.00000  Uiso   1.00
C124   C     0.51302   0.00908   0.63086   0.00000  Uiso   1.00
C125   C     0.48570   1.00899   0.67832   0.00000  Uiso   1.00
C126   C     0.49198   1.01327   0.74189   0.00000  Uiso   1.00
C127   C     0.52571   1.01774   0.75927   0.00000  Uiso   1.00
C128   C     0.55290   0.01734   0.71184   0.00000  Uiso   1.00
C129   C     0.54665   0.01306   0.64842   0.00000  Uiso   1.00
H130   H     0.43362   0.99011   0.39005   0.00000  Uiso   1.00
H131   H     0.42270   0.98223   0.27947   0.00000  Uiso   1.00
H132   H     0.53128  -0.01104   0.22566   0.00000  Uiso   1.00
H133   H     0.54239  -0.00311   0.33675   0.00000  Uiso   1.00
H134   H     0.45944   1.00580   0.66649   0.00000  Uiso   1.00
H135   H     0.47050   1.01333   0.77744   0.00000  Uiso   1.00
H136   H     0.57916   0.02050   0.72372   0.00000  Uiso   1.00
H137   H     0.56829   0.01308   0.61321   0.00000  Uiso   1.00
C138   C     0.28951   0.48757   0.03506   0.00000  Uiso   1.00
C139   C     0.30592   0.45864   0.99885   0.00000  Uiso   1.00
C140   C     0.33878   0.45804   1.01354   0.00000  Uiso   1.00
C141   C     0.35555   0.48602   0.06522   0.00000  Uiso   1.00
C142   C     0.33863   0.51402   0.10256   0.00000  Uiso   1.00
C143   C     0.30612   0.51497   0.08741   0.00000  Uiso   1.00
C144   C     0.25522   0.48933   0.01911   0.00000  Uiso   1.00
N145   N     0.24325   0.52217   0.04509   0.00000  Uiso   1.00
N146   N     0.21182   0.52335   0.03331   0.00000  Uiso   1.00
C147   C     0.19094   0.49172  -0.00502   0.00000  Uiso   1.00
N148   N     0.20309   0.45905   0.96823   0.00000  Uiso   1.00
N149   N     0.23464   0.45793   0.97983   0.00000  Uiso   1.00
C150   C     0.15466   0.49159  -0.01259   0.00000  Uiso   1.00
C151   C     0.13068   0.45618   0.95844   0.00000  Uiso   1.00
C152   C     0.09525   0.45444   0.96027   0.00000  Uiso   1.00
C153   C     0.08326   0.48818  -0.00948   0.00000  Uiso   1.00
C154   C     0.10741   0.52402   0.01687   0.00000  Uiso   1.00
C155   C     0.14278   0.52592   0.01463   0.00000  Uiso   1.00
H156   H     0.29376   0.43702   0.95836   0.00000  Uiso   1.00
H157   H     0.35134   0.43620   0.98383   0.00000  Uiso   1.00
H158   H     0.35096   0.53604   0.14256   0.00000  Uiso   1.00
H159   H     0.29407   0.53736   0.11671   0.00000  Uiso   1.00
H160   H     0.13892   0.42918   0.93713   0.00000  Uiso   1.00
H161   H     0.07700   0.42624   0.94051   0.00000  Uiso   1.00
H162   H     0.09863   0.54987   0.04293   0.00000  Uiso   1.00
H163   H     0.16048   0.55378   0.03715   0.00000  Uiso   1.00
C164   C     0.81536   0.31131   0.00968   0.00000  Uiso   1.00
C165   C     0.82311   0.34116   0.06510   0.00000  Uiso   1.00
C166   C     0.85466   0.37108   0.06820   0.00000  Uiso   1.00
C167   C     0.87957   0.37106   0.01664   0.00000  Uiso   1.00
C168   C     0.87189   0.34135   0.96099   0.00000  Uiso   1.00
C169   C     0.83976   0.31199   0.95722   0.00000  Uiso   1.00
C170   C     0.78207   0.27950   0.00727   0.00000  Uiso   1.00
N171   N     0.76523   0.26430   0.95266   0.00000  Uiso   1.00
N172   N     0.73471   0.23641   0.95115   0.00000  Uiso   1.00
C173   C     0.72009   0.22227   1.00395   0.00000  Uiso   1.00
N174   N     0.73715   0.23707   0.05835   0.00000  Uiso   1.00
N175   N     0.76744   0.26537   0.06009   0.00000  Uiso   1.00
C176   C     0.68630   0.19131   1.00187   0.00000  Uiso   1.00
C177   C     0.67999   0.16052   0.03581   0.00000  Uiso   1.00
C178   C     0.64910   0.12930   0.02921   0.00000  Uiso   1.00
C179   C     0.62364   0.12911   0.99009   0.00000  Uiso   1.00
C180   C     0.62921   0.16111   0.95898   0.00000  Uiso   1.00
C181   C     0.66048   0.19157   0.96402   0.00000  Uiso   1.00
H182   H     0.80463   0.34156   0.10595   0.00000  Uiso   1.00
H183   H     0.86006   0.39355   0.11181   0.00000  Uiso   1.00
H184   H     0.89072   0.34079   0.92065   0.00000  Uiso   1.00
H185   H     0.83434   0.28927   0.91392   0.00000  Uiso   1.00
H186   H     0.69954   0.15969   0.06531   0.00000  Uiso   1.00
H187   H     0.64544   0.10489   0.05355   0.00000  Uiso   1.00
H188   H     0.61008   0.16157   0.92829   0.00000  Uiso   1.00
H189   H     0.66462   0.21519   0.93787   0.00000  Uiso   1.00
C190   C     0.85019   0.50542   1.00987   0.00000  Uiso   1.00
C191   C     0.87469   0.53931   0.04155   0.00000  Uiso   1.00
C192   C     0.91018   0.54063   0.03560   0.00000  Uiso   1.00
C193   C     0.92157   0.50778   0.99912   0.00000  Uiso   1.00
C194   C     0.89696   0.47317   0.97045   0.00000  Uiso   1.00
C195   C     0.86162   0.47185   0.97604   0.00000  Uiso   1.00
C196   C     0.81375   0.50637   1.00616   0.00000  Uiso   1.00
N197   N     0.79274   0.47721   0.96465   0.00000  Uiso   1.00
N198   N     0.76116   0.47958   0.95616   0.00000  Uiso   1.00
C199   C     0.74917   0.51128   0.98882   0.00000  Uiso   1.00
N200   N     0.76987   0.54019   0.03131   0.00000  Uiso   1.00
N201   N     0.80161   0.53787   0.03964   0.00000  Uiso   1.00
C202   C     0.71459   0.51436   0.97649   0.00000  Uiso   1.00
C203   C     0.69865   0.54252   0.01672   0.00000  Uiso   1.00
C204   C     0.66549   0.54405   0.00520   0.00000  Uiso   1.00
C205   C     0.64798   0.51788   0.95281   0.00000  Uiso   1.00
C206   C     0.66431   0.49057   0.91186   0.00000  Uiso   1.00
C207   C     0.69713   0.48871   0.92366   0.00000  Uiso   1.00
H208   H     0.86673   0.56559   0.06823   0.00000  Uiso   1.00
H209   H     0.92886   0.56780   0.05756   0.00000  Uiso   1.00
H210   H     0.90529   0.44798   0.94052   0.00000  Uiso   1.00
H211   H     0.84354   0.44519   0.95114   0.00000  Uiso   1.00
H212   H     0.71151   0.56284   0.05763   0.00000  Uiso   1.00
H213   H     0.65340   0.56534   0.03760   0.00000  Uiso   1.00
H214   H     0.65138   0.46985   0.87133   0.00000  Uiso   1.00
H215   H     0.70872   0.46693   0.89130   0.00000  Uiso   1.00
C216   C     0.31535   0.80887   0.00482   0.00000  Uiso   1.00
C217   C     0.32141   0.83962   0.97090   0.00000  Uiso   1.00
C218   C     0.35204   0.87112   0.97755   0.00000  Uiso   1.00
C219   C     0.37752   0.87184   0.01697   0.00000  Uiso   1.00
C220   C     0.37211   0.84017   0.04880   0.00000  Uiso   1.00
C221   C     0.34105   0.80929   0.04357   0.00000  Uiso   1.00
C222   C     0.28210   0.77702   0.00063   0.00000  Uiso   1.00
N223   N     0.26707   0.76139   0.05196   0.00000  Uiso   1.00
N224   N     0.23680   0.73301   0.04828   0.00000  Uiso   1.00
C225   C     0.22060   0.71885   0.99283   0.00000  Uiso   1.00
N226   N     0.23568   0.73445   0.94155   0.00000  Uiso   1.00
N227   N     0.26568   0.76317   0.94546   0.00000  Uiso   1.00
C228   C     0.18757   0.68664   0.98769   0.00000  Uiso   1.00
C229   C     0.18070   0.65820   0.93050   0.00000  Uiso   1.00
C230   C     0.14930   0.62807   0.92446   0.00000  Uiso   1.00
C231   C     0.12372   0.62643   0.97485   0.00000  Uiso   1.00
C232   C     0.13053   0.65466   0.03231   0.00000  Uiso   1.00
C233   C     0.16249   0.68423   0.03899   0.00000  Uiso   1.00
H234   H     0.30189   0.84004   0.94098   0.00000  Uiso   1.00
H235   H     0.35552   0.89527   0.95274   0.00000  Uiso   1.00
H236   H     0.39127   0.84017   0.07982   0.00000  Uiso   1.00
H237   H     0.33706   0.78579   0.06993   0.00000  Uiso   1.00
H238   H     0.19971   0.65914   0.89046   0.00000  Uiso   1.00
H239   H     0.14460   0.60669   0.87960   0.00000  Uiso   1.00
H240   H     0.11120   0.65380   0.07189   0.00000  Uiso   1.00
H241   H     0.16724   0.70581   0.08360   0.00000  Uiso   1.00
C242   C     0.50535   0.82602   0.94483   0.00000  Uiso   1.00
C243   C     0.53486   0.85719  -0.03388   0.00000  Uiso   1.00
C244   C     0.53534   0.89743  -0.02817   0.00000  Uiso   1.00
C245   C     0.50628   0.90733   0.95696   0.00000  Uiso   1.00
C246   C     0.47663   0.87644   0.93649   0.00000  Uiso   1.00
C247   C     0.47609   0.83612   0.93066   0.00000  Uiso   1.00
C248   C     0.50516   0.78330   0.93751   0.00000  Uiso   1.00
N249   N     0.47634   0.75309   0.91913   0.00000  Uiso   1.00
N250   N     0.47566   0.71481   0.91530   0.00000  Uiso   1.00
C251   C     0.50385   0.70505   0.92923   0.00000  Uiso   1.00
N252   N     0.53286   0.73521  -0.05339   0.00000  Uiso   1.00
N253   N     0.53353   0.77351  -0.04947   0.00000  Uiso   1.00
C254   C     0.50163   0.66308   0.93223   0.00000  Uiso   1.00
C255   C     0.53111   0.65254  -0.05561   0.00000  Uiso   1.00
C256   C     0.52757   0.61511  -0.04108   0.00000  Uiso   1.00
C257   C     0.49452   0.58799   0.96194   0.00000  Uiso   1.00
C258   C     0.46555   0.59717   0.94525   0.00000  Uiso   1.00
C259   C     0.46910   0.63423   0.92988   0.00000  Uiso   1.00
H260   H     0.55782   0.85052  -0.02242   0.00000  Uiso   1.00
H261   H     0.55867   0.92086  -0.01311   0.00000  Uiso   1.00
H262   H     0.45444   0.88346   0.92264   0.00000  Uiso   1.00
H263   H     0.45298   0.81291   0.91385   0.00000  Uiso   1.00
H264   H     0.55659   0.67397  -0.05393   0.00000  Uiso   1.00
H265   H     0.55012   0.60866  -0.02745   0.00000  Uiso   1.00
H266   H     0.43983   0.57646   0.94734   0.00000  Uiso   1.00
H267   H     0.44590   0.64115   0.92021   0.00000  Uiso   1.00
C268   C     0.48986   0.33237   0.04595   0.00000  Uiso   1.00
C269   C     0.50922   0.36507   0.08938   0.00000  Uiso   1.00
C270   C     0.51360   0.40470   0.08336   0.00000  Uiso   1.00
C271   C     0.49865   0.41212   0.03403   0.00000  Uiso   1.00
C272   C     0.47764   0.37987   0.99308   0.00000  Uiso   1.00
C273   C     0.47296   0.34030   0.99932   0.00000  Uiso   1.00
C274   C     0.48966   0.29043   0.04585   0.00000  Uiso   1.00
N275   N     0.46782   0.25858   1.00954   0.00000  Uiso   1.00
N276   N     0.46906   0.22101   1.00664   0.00000  Uiso   1.00
C277   C     0.49245   0.21369   0.03941   0.00000  Uiso   1.00
N278   N     0.51427   0.24553   0.07576   0.00000  Uiso   1.00
N279   N     0.51292   0.28308   0.07887   0.00000  Uiso   1.00
C280   C     0.49365   0.17188   0.03666   0.00000  Uiso   1.00
C281   C     0.52142   0.16455   0.06156   0.00000  Uiso   1.00
C282   C     0.52146   0.12520   0.06237   0.00000  Uiso   1.00
C283   C     0.49378   0.09256   0.03833   0.00000  Uiso   1.00
C284   C     0.46634   0.09960   1.01246   0.00000  Uiso   1.00
C285   C     0.46646   0.13886   1.01088   0.00000  Uiso   1.00
H286   H     0.52225   0.35999   0.12625   0.00000  Uiso   1.00
H287   H     0.53026   0.42936   0.11484   0.00000  Uiso   1.00
H288   H     0.46650   0.38518   0.95397   0.00000  Uiso   1.00
H289   H     0.45783   0.31591   0.96520   0.00000  Uiso   1.00
H290   H     0.54288   0.18922   0.08137   0.00000  Uiso   1.00
H291   H     0.54252   0.12032   0.08364   0.00000  Uiso   1.00
H292   H     0.44460   0.07471   0.99420   0.00000  Uiso   1.00
H293   H     0.44474   0.14339   0.99112   0.00000  Uiso   1.00
loop_
_geom_bond_atom_site_label_1
_geom_bond_atom_site_label_2
_geom_bond_distance
_geom_bond_site_symmetry_2
_ccdc_geom_bond_type
Yb0    O3      2.083   .     S
Yb0    O4      2.106   .     S
Yb0    O7      2.086   .     S
Yb0    O5      2.141   1_556 S
Yb0    O8      2.101   1_556 S
Yb0    O12     2.194   1_556 S
Yb1    O9      2.087   .     S
Yb1    O10     2.101   .     S
Yb1    O14     2.089   .     S
Yb1    O6      2.186   1_554 S
Yb1    O13     2.145   1_554 S
Yb1    O16     2.099   1_554 S
C2     O14     1.293   .     A
C2     C141    1.476   .     S
C2     O16     1.294   1_554 A
O3     C11     1.290   .     A
O4     C11     1.294   .     A
O5     C15     1.262   .     A
O5     Yb0     2.141   1_554 S
O6     Yb1     2.186   1_556 S
O6     C15     1.275   1_556 A
O7     C17     1.292   .     A
O8     Yb0     2.101   1_554 S
O8     C17     1.293   1_554 A
O9     C18     1.290   .     A
O10    C18     1.295   .     A
C11    C75     1.473   .     S
O12    C19     1.276   .     A
O12    Yb0     2.194   1_554 S
O13    Yb1     2.145   1_556 S
O13    C19     1.262   1_556 A
C15    O6      1.275   1_554 A
C15    C257    1.465   1_554 S
O16    Yb1     2.099   1_556 S
O16    C2      1.294   1_556 A
C17    C205    1.475   .     S
C17    O8      1.293   1_556 A
C18    C63     1.475   .     S
C19    C271    1.462   .     S
C19    O13     1.262   1_554 A
Yb20   O23     2.114   .     S
Yb20   O27     2.090   .     S
Yb20   O24     2.094   1_455 S
Yb20   O25     2.163   1_455 S
Yb20   O28     2.111   1_556 S
Yb20   O32     2.167   1_556 S
Yb21   O29     2.112   .     S
Yb21   O34     2.089   .     S
Yb21   O26     2.160   1_554 S
Yb21   O30     2.092   1_655 S
Yb21   O33     2.162   1_655 S
Yb21   O36     2.113   1_554 S
C22    O34     1.288   .     A
C22    C167    1.475   .     S
C22    O36     1.294   1_554 A
O23    C31     1.293   1_455 A
O24    C31     1.289   .     A
O24    Yb20    2.094   1_655 S
O25    C35     1.273   .     A
O25    Yb20    2.163   1_655 S
O26    C35     1.270   .     A
O26    Yb21    2.160   1_556 S
O27    C37     1.289   .     A
O28    Yb20    2.111   1_554 S
O28    C37     1.293   1_554 A
O29    C38     1.293   1_655 A
O30    C38     1.289   .     A
O30    Yb21    2.092   1_455 S
C31    C89     1.480   .     S
C31    O23     1.293   1_655 A
O32    C39     1.272   .     A
O32    Yb20    2.167   1_554 S
O33    C39     1.275   .     A
O33    Yb21    2.162   1_455 S
C35    C193    1.470   .     S
O36    Yb21    2.113   1_556 S
O36    C22     1.294   1_556 A
C37    C231    1.474   .     S
C37    O28     1.293   1_556 A
C38    C101    1.478   .     S
C38    O29     1.293   1_455 A
C39    C153    1.473   .     S
Yb40   O43     2.109   .     S
Yb40   O47     2.099   .     S
Yb40   O44     2.093   1_565 S
Yb40   O45     2.163   1_565 S
Yb40   O48     2.101   1_554 S
Yb40   O52     2.165   1_554 S
Yb41   O49     2.107   .     S
Yb41   O54     2.096   .     S
Yb41   O46     2.158   1_556 S
Yb41   O50     2.095   1_545 S
Yb41   O53     2.159   1_545 S
Yb41   O56     2.102   1_556 S
C42    O54     1.292   .     A
C42    C179    1.476   .     S
C42    O56     1.292   1_556 A
O43    C51     1.293   1_565 A
O44    C51     1.290   .     A
O44    Yb40    2.093   1_545 S
O45    C55     1.273   .     A
O45    Yb40    2.163   1_545 S
O46    C55     1.270   .     A
O46    Yb41    2.158   1_554 S
O47    C57     1.292   .     A
O48    Yb40    2.101   1_556 S
O48    C57     1.292   1_556 A
O49    C58     1.293   1_545 A
O50    C58     1.291   .     A
O50    Yb41    2.095   1_565 S
C51    C115    1.478   .     S
C51    O43     1.293   1_545 A
O52    C59     1.272   .     A
O52    Yb40    2.165   1_556 S
O53    C59     1.273   .     A
O53    Yb41    2.159   1_565 S
C55    C283    1.469   .     S
O56    Yb41    2.102   1_554 S
O56    C42     1.292   1_554 A
C57    C219    1.476   .     S
C57    O48     1.292   1_554 A
C58    C127    1.478   .     S
C58    O49     1.293   1_565 A
C59    C245    1.469   .     S
C60    C61     1.406   .     A
C60    C65     1.407   .     A
C60    C66     1.482   .     S
C61    C62     1.398   .     A
C61    H78     1.083   .     S
C62    C63     1.405   .     A
C62    H79     1.083   .     S
C63    C64     1.402   .     A
C64    C65     1.397   .     A
C64    H80     1.083   .     S
C65    H81     1.082   .     S
C66    N67     1.357   .     A
C66    N71     1.358   .     A
N67    N68     1.332   .     A
N68    C69     1.357   .     A
C69    N70     1.358   .     A
C69    C72     1.482   .     S
N70    N71     1.334   .     A
C72    C73     1.408   .     A
C72    C77     1.406   .     A
C73    C74     1.400   .     A
C73    H82     1.083   .     S
C74    C75     1.403   .     A
C74    H83     1.083   .     S
C75    C76     1.403   .     A
C76    C77     1.394   .     A
C76    H84     1.083   .     S
C77    H85     1.083   .     S
C86    C87     1.405   .     A
C86    C91     1.408   .     A
C86    C92     1.485   .     S
C87    C88     1.396   .     A
C87    H104    1.083   .     S
C88    C89     1.405   .     A
C88    H105    1.083   .     S
C89    C90     1.404   .     A
C90    C91     1.401   .     A
C90    H106    1.083   1_655 S
C91    H107    1.083   1_655 S
C92    N93     1.358   .     A
C92    N97     1.360   .     A
N93    N94     1.332   .     A
N94    C95     1.359   .     A
C95    N96     1.358   .     A
C95    C98     1.484   .     S
N96    N97     1.332   .     A
C98    C99     1.408   .     A
C98    C103    1.405   1_655 A
C99    C100    1.401   .     A
C99    H108    1.083   .     S
C100   H109    1.083   .     S
C100   C101    1.404   1_655 A
C101   C102    1.404   .     A
C101   C100    1.404   1_455 A
C102   C103    1.395   .     A
C102   H110    1.083   .     S
C103   H111    1.083   .     S
C103   C98     1.405   1_455 A
H106   C90     1.083   1_455 S
H107   C91     1.083   1_455 S
C112   C117    1.408   .     A
C112   C118    1.484   .     S
C112   C113    1.405   1_545 A
C113   C114    1.396   .     A
C113   H130    1.083   .     S
C113   C112    1.405   1_565 A
C114   H131    1.083   .     S
C114   C115    1.404   1_565 A
C115   C116    1.404   .     A
C115   C114    1.404   1_545 A
C116   C117    1.400   .     A
C116   H132    1.083   .     S
C117   H133    1.083   .     S
C118   N119    1.358   .     A
C118   N123    1.359   1_545 A
N119   N120    1.332   .     A
N120   C121    1.359   .     A
C121   C124    1.484   .     S
C121   N122    1.358   1_545 A
N122   N123    1.332   .     A
N122   C121    1.358   1_565 A
N123   C118    1.359   1_565 A
C124   C129    1.406   .     A
C124   C125    1.408   1_545 A
C125   C126    1.400   .     A
C125   H134    1.083   .     S
C125   C124    1.408   1_565 A
C126   C127    1.404   .     A
C126   H135    1.083   .     S
C127   C128    1.404   1_565 A
C128   C129    1.396   .     A
C128   H136    1.083   .     S
C128   C127    1.404   1_545 A
C129   H137    1.083   .     S
C138   C143    1.405   .     A
C138   C144    1.480   .     S
C138   C139    1.406   1_554 A
C139   C140    1.400   .     A
C139   H156    1.083   .     S
C139   C138    1.406   1_556 A
C140   H157    1.084   .     S
C140   C141    1.405   1_556 A
C141   C142    1.403   .     A
C141   C140    1.405   1_554 A
C142   C143    1.395   .     A
C142   H158    1.083   .     S
C143   H159    1.082   .     S
C144   N145    1.358   .     A
C144   N149    1.359   1_554 A
N145   N146    1.330   .     A
N146   C147    1.358   .     A
C147   C150    1.482   .     S
C147   N148    1.359   1_554 A
N148   N149    1.333   .     A
N148   C147    1.359   1_556 A
N149   C144    1.359   1_556 A
C150   C155    1.406   .     A
C150   C151    1.407   1_554 A
C151   C152    1.400   .     A
C151   H160    1.082   .     S
C151   C150    1.407   1_556 A
C152   H161    1.083   .     S
C152   C153    1.403   1_556 A
C153   C154    1.402   .     A
C153   C152    1.403   1_554 A
C154   C155    1.395   .     A
C154   H162    1.083   .     S
C155   H163    1.083   .     S
C164   C165    1.402   .     A
C164   C170    1.477   .     S
C164   C169    1.406   1_554 A
C165   C166    1.395   .     A
C165   H182    1.083   .     S
C166   C167    1.405   .     A
C166   H183    1.083   .     S
C167   C168    1.403   1_554 A
C168   C169    1.402   .     A
C168   H184    1.083   .     S
C168   C167    1.403   1_556 A
C169   H185    1.083   .     S
C169   C164    1.406   1_556 A
C170   N175    1.359   .     A
C170   N171    1.357   1_554 A
N171   N172    1.333   .     A
N171   C170    1.357   1_556 A
N172   C173    1.359   .     A
C173   C176    1.476   .     S
C173   N174    1.357   1_556 A
N174   N175    1.333   .     A
N174   C173    1.357   1_554 A
C176   C181    1.403   .     A
C176   C177    1.405   1_556 A
C177   C178    1.401   .     A
C177   H186    1.083   .     S
C177   C176    1.405   1_554 A
C178   H187    1.083   .     S
C178   C179    1.405   1_554 A
C179   C180    1.404   .     A
C179   C178    1.405   1_556 A
C180   C181    1.397   .     A
C180   H188    1.083   .     S
C181   H189    1.083   .     S
C190   C195    1.407   .     A
C190   C196    1.483   .     S
C190   C191    1.407   1_556 A
C191   C192    1.401   .     A
C191   H208    1.083   .     S
C191   C190    1.407   1_554 A
C192   H209    1.083   .     S
C192   C193    1.403   1_554 A
C193   C194    1.401   .     A
C193   C192    1.403   1_556 A
C194   C195    1.394   .     A
C194   H210    1.083   .     S
C195   H211    1.083   .     S
C196   N197    1.356   .     A
C196   N201    1.360   1_556 A
N197   N198    1.330   .     A
N198   C199    1.357   .     A
C199   C202    1.483   .     S
C199   N200    1.359   1_556 A
N200   N201    1.335   .     A
N200   C199    1.359   1_554 A
N201   C196    1.360   1_554 A
C202   C207    1.405   .     A
C202   C203    1.407   1_556 A
C203   C204    1.401   .     A
C203   H212    1.083   .     S
C203   C202    1.407   1_554 A
C204   H213    1.083   .     S
C204   C205    1.405   1_554 A
C205   C206    1.402   .     A
C205   C204    1.405   1_556 A
C206   C207    1.393   .     A
C206   H214    1.083   .     S
C207   H215    1.083   .     S
C216   C221    1.404   .     A
C216   C222    1.476   .     S
C216   C217    1.404   1_554 A
C217   C218    1.399   .     A
C217   H234    1.083   .     S
C217   C216    1.404   1_556 A
C218   H235    1.083   .     S
C218   C219    1.404   1_556 A
C219   C220    1.405   .     A
C219   C218    1.404   1_554 A
C220   C221    1.399   .     A
C220   H236    1.083   .     S
C221   H237    1.083   .     S
C222   N223    1.359   .     A
C222   N227    1.358   1_554 A
N223   N224    1.333   .     A
N224   C225    1.359   1_554 A
C225   N226    1.358   .     A
C225   C228    1.476   .     S
C225   N224    1.359   1_556 A
N226   N227    1.331   .     A
N227   C222    1.358   1_556 A
C228   C229    1.403   .     A
C228   C233    1.406   1_556 A
C229   C230    1.395   .     A
C229   H238    1.083   .     S
C230   C231    1.404   .     A
C230   H239    1.083   .     S
C231   C232    1.404   1_556 A
C232   C233    1.402   .     A
C232   H240    1.083   .     S
C232   C231    1.404   1_554 A
C233   H241    1.083   .     S
C233   C228    1.406   1_554 A
C242   C247    1.408   .     A
C242   C248    1.482   .     S
C242   C243    1.407   1_556 A
C243   C244    1.396   .     A
C243   H260    1.083   .     S
C243   C242    1.407   1_554 A
C244   H261    1.083   .     S
C244   C245    1.402   1_554 A
C245   C246    1.401   .     A
C245   C244    1.402   1_556 A
C246   C247    1.398   .     A
C246   H262    1.083   .     S
C247   H263    1.083   .     S
C248   N249    1.358   .     A
C248   N253    1.359   1_556 A
N249   N250    1.331   .     A
N250   C251    1.359   .     A
C251   C254    1.480   .     S
C251   N252    1.358   1_556 A
N252   N253    1.332   .     A
N252   C251    1.358   1_554 A
N253   C248    1.359   1_554 A
C254   C259    1.406   .     A
C254   C255    1.408   1_556 A
C255   C256    1.399   .     A
C255   H264    1.083   .     S
C255   C254    1.408   1_554 A
C256   H265    1.084   .     S
C256   C257    1.401   1_554 A
C257   C258    1.401   .     A
C257   C256    1.401   1_556 A
C257   C15     1.465   1_556 S
C258   C259    1.394   .     A
C258   H266    1.084   .     S
C259   H267    1.083   .     S
C268   C269    1.409   .     A
C268   C274    1.483   .     S
C268   C273    1.407   1_554 A
C269   C270    1.399   .     A
C269   H286    1.083   .     S
C270   C271    1.400   .     A
C270   H287    1.083   .     S
C271   C272    1.400   1_554 A
C272   C273    1.397   .     A
C272   H288    1.084   .     S
C272   C271    1.400   1_556 A
C273   H289    1.083   .     S
C273   C268    1.407   1_556 A
C274   N279    1.358   .     A
C274   N275    1.359   1_554 A
N275   N276    1.332   .     A
N275   C274    1.359   1_556 A
N276   C277    1.358   1_556 A
C277   N278    1.359   .     A
C277   C280    1.483   .     S
C277   N276    1.358   1_554 A
N278   N279    1.332   .     A
C280   C281    1.408   .     A
C280   C285    1.407   1_554 A
C281   C282    1.398   .     A
C281   H290    1.083   .     S
C282   C283    1.401   .     A
C282   H291    1.084   .     S
C283   C284    1.402   1_554 A
C284   C285    1.398   .     A
C284   H292    1.084   .     S
C284   C283    1.402   1_556 A
C285   H293    1.083   .     S
C285   C280    1.407   1_556 A
