data_kag+N123+E225
_audit_creation_date              2025-01-21
_audit_creation_method            'Materials Studio'
_symmetry_space_group_name_H-M    'P1'
_symmetry_Int_Tables_number       1
_symmetry_cell_setting            triclinic
loop_
_symmetry_equiv_pos_as_xyz
  x,y,z
_cell_length_a                    43.7011
_cell_length_b                    42.0296
_cell_length_c                    19.1692
_cell_angle_alpha                 88.3514
_cell_angle_beta                  88.0868
_cell_angle_gamma                 125.4600
loop_
_atom_site_label
_atom_site_type_symbol
_atom_site_fract_x
_atom_site_fract_y
_atom_site_fract_z
_atom_site_U_iso_or_equiv
_atom_site_adp_type
_atom_site_occupancy
Ce0    Ce    0.55283   0.53048  -0.01853   0.00000  Uiso   1.00
Ce1    Ce    0.47166   0.48858   0.97554   0.00000  Uiso   1.00
C2     C     0.47609   0.49079   0.11567   0.00000  Uiso   1.00
C3     C     0.59969   0.51848   0.04517   0.00000  Uiso   1.00
C4     C     0.51965   0.58253   0.96841   0.00000  Uiso   1.00
C5     C     0.55008   0.52620   0.84371   0.00000  Uiso   1.00
C6     C     0.39683   0.45400   0.97314   0.00000  Uiso   1.00
C7     C     0.49912   0.43326  -0.01108   0.00000  Uiso   1.00
O8     O     0.44645   0.47690   0.08705   0.00000  Uiso   1.00
O9     O     0.50796   0.50677   0.06979   0.00000  Uiso   1.00
O10    O     0.60017   0.54883   0.05319   0.00000  Uiso   1.00
O11    O     0.57355   0.49287   1.00783   0.00000  Uiso   1.00
O12    O     0.54941   0.58317   0.97261   0.00000  Uiso   1.00
O13    O     0.48620   0.55055   0.96903   0.00000  Uiso   1.00
O14    O     0.57988   0.54246   0.87271   0.00000  Uiso   1.00
O15    O     0.51746   0.50991   0.88848   0.00000  Uiso   1.00
O16    O     0.41797   0.46248   0.91792   0.00000  Uiso   1.00
O17    O     0.41366   0.46165   0.03028   0.00000  Uiso   1.00
O18    O     0.46968   0.43311  -0.01629   0.00000  Uiso   1.00
O19    O     0.53312   0.46522  -0.01203   0.00000  Uiso   1.00
Ce20   Ce    0.03346   0.48908   0.01791   0.00000  Uiso   1.00
Ce21   Ce    0.97902   0.50687   0.02710   0.00000  Uiso   1.00
C22    C     0.99231   0.51673   0.88734   0.00000  Uiso   1.00
C23    C     0.08521   0.47295   1.02099   0.00000  Uiso   1.00
C24    C     0.94610   0.41574   0.01235   0.00000  Uiso   1.00
C25    C     0.02129   0.48130   0.15809   0.00000  Uiso   1.00
C26    C     0.92611   0.52112   0.02898   0.00000  Uiso   1.00
C27    C     0.06585   0.58010   1.03312   0.00000  Uiso   1.00
O28    O     0.97001   0.52109   0.91792   0.00000  Uiso   1.00
O29    O     0.01021   0.50563   0.93103   0.00000  Uiso   1.00
O30    O     0.07571   0.48045   0.96369   0.00000  Uiso   1.00
O31    O     0.06786   0.47310   0.07584   0.00000  Uiso   1.00
O32    O     0.98036   0.42587   0.01214   0.00000  Uiso   1.00
O33    O     0.93764   0.44053   0.01662   0.00000  Uiso   1.00
O34    O     0.04302   0.47608   0.12774   0.00000  Uiso   1.00
O35    O     0.00284   0.49131   0.11380   0.00000  Uiso   1.00
O36    O     0.93696   0.51403   0.08475   0.00000  Uiso   1.00
O37    O     0.94330   0.52235   0.97244   0.00000  Uiso   1.00
O38    O     0.03153   0.56973   1.03421   0.00000  Uiso   1.00
O39    O     0.07474   0.55564   1.02770   0.00000  Uiso   1.00
Ce40   Ce    0.51466   0.97788   1.00879   0.00000  Uiso   1.00
Ce41   Ce    0.49044   0.02842  -0.00621   0.00000  Uiso   1.00
C42    C     0.48857   0.02324   0.13414   0.00000  Uiso   1.00
C43    C     0.53401   0.92749   1.01641   0.00000  Uiso   1.00
C44    C     0.58048   0.07072   0.99453   0.00000  Uiso   1.00
C45    C     0.51601   0.98250   0.86853   0.00000  Uiso   1.00
C46    C     0.47009   0.07798  -0.01476   0.00000  Uiso   1.00
C47    C     0.42488   0.93574   0.00267   0.00000  Uiso   1.00
O48    O     0.48050   0.04282   0.10194   0.00000  Uiso   1.00
O49    O     0.49928   0.00417   0.09194   0.00000  Uiso   1.00
O50    O     0.52888   0.94127   0.07068   0.00000  Uiso   1.00
O51    O     0.53093   0.94081   0.95819   0.00000  Uiso   1.00
O52    O     0.57379   0.03638   1.00200   0.00000  Uiso   1.00
O53    O     0.55416   0.07609  -0.00804   0.00000  Uiso   1.00
O54    O     0.52453   0.96337   0.90087   0.00000  Uiso   1.00
O55    O     0.50551   1.00184   0.91053   0.00000  Uiso   1.00
O56    O     0.47571   0.06437   0.93134   0.00000  Uiso   1.00
O57    O     0.47372   0.06534   0.04373   0.00000  Uiso   1.00
O58    O     0.43141   0.97005  -0.00115   0.00000  Uiso   1.00
O59    O     0.45104   0.93033   1.00850   0.00000  Uiso   1.00
C60    C     0.47785   0.48968   0.19234   0.00000  Uiso   1.00
C61    C     0.51205   0.50320   0.22214   0.00000  Uiso   1.00
C62    C     0.51357   0.50066   0.29471   0.00000  Uiso   1.00
C63    C     0.48088   0.48502   0.33895   0.00000  Uiso   1.00
C64    C     0.44679   0.47116   0.30888   0.00000  Uiso   1.00
C65    C     0.44524   0.47367   0.23637   0.00000  Uiso   1.00
C66    C     0.51265   0.50780   0.44528   0.00000  Uiso   1.00
H67    H     0.48854   0.49702   0.76794   0.00000  Uiso   1.00
H68    H     0.48647   0.49950   0.64112   0.00000  Uiso   1.00
H69    H     0.60617   0.55527   0.61885   0.00000  Uiso   1.00
H70    H     0.60853   0.55392   0.74654   0.00000  Uiso   1.00
H71    H     0.49213   0.47512   0.54085   0.00000  Uiso   1.00
O72    O     0.54731   0.53037   0.54655   0.00000  Uiso   1.00
O73    O     0.48020   0.47975   0.41195   0.00000  Uiso   1.00
C74    C     0.54862   0.52500   0.76695   0.00000  Uiso   1.00
C75    C     0.51432   0.50923   0.73593   0.00000  Uiso   1.00
C76    C     0.51309   0.51019   0.66312   0.00000  Uiso   1.00
C77    C     0.54623   0.52629   0.61991   0.00000  Uiso   1.00
C78    C     0.58035   0.54202   0.65122   0.00000  Uiso   1.00
C79    C     0.58164   0.54125   0.72397   0.00000  Uiso   1.00
C80    C     0.51498   0.50212   0.51318   0.00000  Uiso   1.00
H81    H     0.54003   0.50989   0.31579   0.00000  Uiso   1.00
H82    H     0.42126   0.45821   0.34201   0.00000  Uiso   1.00
H83    H     0.53747   0.51497   0.18929   0.00000  Uiso   1.00
H84    H     0.53553   0.53482   0.41768   0.00000  Uiso   1.00
H85    H     0.41842   0.46260   0.21470   0.00000  Uiso   1.00
C86    C     0.99931   0.52277   0.81060   0.00000  Uiso   1.00
C87    C     1.02073   0.51229   0.77583   0.00000  Uiso   1.00
C88    C     1.02525   0.51582   0.70274   0.00000  Uiso   1.00
C89    C     0.00827   0.52986   0.66344   0.00000  Uiso   1.00
C90    C    -0.01110   0.54250   0.69841   0.00000  Uiso   1.00
C91    C    -0.01594   0.53866   0.77130   0.00000  Uiso   1.00
C92    C     0.00545   0.50068   0.55740   0.00000  Uiso   1.00
H93    H    -0.01950   0.49824   0.23885   0.00000  Uiso   1.00
H94    H    -0.02723   0.49331   0.36690   0.00000  Uiso   1.00
H95    H     1.04220   0.45153   0.37857   0.00000  Uiso   1.00
H96    H     1.05010   0.45631   0.25073   0.00000  Uiso   1.00
H97    H     0.01758   0.52825   0.45775   0.00000  Uiso   1.00
O98    O     0.00419   0.46966   0.45546   0.00000  Uiso   1.00
O99    O     0.01133   0.53313   0.59007   0.00000  Uiso   1.00
C100   C     0.01598   0.47783   0.23499   0.00000  Uiso   1.00
C101   C    -0.00582   0.48811   0.26881   0.00000  Uiso   1.00
C102   C    -0.00989   0.48572   0.34187   0.00000  Uiso   1.00
C103   C     0.00805   0.47320   0.38216   0.00000  Uiso   1.00
C104   C     1.02881   0.46185   0.34825   0.00000  Uiso   1.00
C105   C     1.03320   0.46457   0.27539   0.00000  Uiso   1.00
C106   C     0.00926   0.50179   0.48793   0.00000  Uiso   1.00
H107   H     1.04190   0.50761   0.67692   0.00000  Uiso   1.00
H108   H    -0.02329   0.55445   0.66881   0.00000  Uiso   1.00
H109   H     1.03360   0.50095   0.80500   0.00000  Uiso   1.00
H110   H     0.99696   0.47413   0.58750   0.00000  Uiso   1.00
H111   H    -0.03179   0.54793   0.79682   0.00000  Uiso   1.00
C112   C     0.48643   0.01959   0.21118   0.00000  Uiso   1.00
C113   C     0.49400   0.99517   0.24565   0.00000  Uiso   1.00
C114   C     0.49110   0.99094   0.31869   0.00000  Uiso   1.00
C115   C     0.48111   0.01165   0.35855   0.00000  Uiso   1.00
C116   C     0.47295   0.03542   0.32389   0.00000  Uiso   1.00
C117   C     0.47580   0.03963   0.25093   0.00000  Uiso   1.00
C118   C     0.50161   1.00313   0.46696   0.00000  Uiso   1.00
H119   H     0.50024   0.02423   0.78521   0.00000  Uiso   1.00
H120   H     0.50317   0.02912   0.65747   0.00000  Uiso   1.00
H121   H     0.53656   0.95073   0.65033   0.00000  Uiso   1.00
H122   H     0.53442   0.94638   0.77843   0.00000  Uiso   1.00
H123   H     0.47247  -0.00851   0.56366   0.00000  Uiso   1.00
O124   O     0.52221   0.99161   0.57077   0.00000  Uiso   1.00
O125   O     0.47637   0.00736   0.43190   0.00000  Uiso   1.00
C126   C     0.51684   0.98473   0.79155   0.00000  Uiso   1.00
C127   C     0.50781   0.00773   0.75633   0.00000  Uiso   1.00
C128   C     0.50902   0.01011   0.68324   0.00000  Uiso   1.00
C129   C     0.51877   0.98893   0.64421   0.00000  Uiso   1.00
C130   C     0.52828   0.96652   0.67961   0.00000  Uiso   1.00
C131   C     0.52710   0.96416   0.75255   0.00000  Uiso   1.00
C132   C     0.49673   0.99554   0.53597   0.00000  Uiso   1.00
H133   H     0.49586   0.97089   0.34374   0.00000  Uiso   1.00
H134   H     0.46444   0.05082   0.35377   0.00000  Uiso   1.00
H135   H     0.50161   0.97887   0.21618   0.00000  Uiso   1.00
H136   H     0.52592   1.00718   0.43949   0.00000  Uiso   1.00
H137   H     0.46942   0.05834   0.22561   0.00000  Uiso   1.00
C138   C     0.35681   0.43894  -0.02915   0.00000  Uiso   1.00
C139   C     0.33529   0.43245   0.03267   0.00000  Uiso   1.00
C140   C     0.29907   0.42327   0.02975   0.00000  Uiso   1.00
C141   C     0.28400   0.42112   0.96470   0.00000  Uiso   1.00
C142   C     0.30447   0.42491   0.90345   0.00000  Uiso   1.00
C143   C     0.34065   0.43397   0.90628   0.00000  Uiso   1.00
C144   C     0.24134   0.43550   0.00406   0.00000  Uiso   1.00
H145   H     0.12524   0.46750   0.91400   0.00000  Uiso   1.00
H146   H     0.17590   0.45888   0.92495   0.00000  Uiso   1.00
H147   H     0.16203   0.45429   0.14939   0.00000  Uiso   1.00
H148   H     0.11158   0.46281   0.13909   0.00000  Uiso   1.00
H149   H     0.18857   0.41346   0.96537   0.00000  Uiso   1.00
O150   O     0.20283   0.45338   0.04851   0.00000  Uiso   1.00
O151   O     0.24886   0.41475   0.95888   0.00000  Uiso   1.00
C152   C     0.11429   0.46553   0.02562   0.00000  Uiso   1.00
C153   C     0.13259   0.46392   0.96559   0.00000  Uiso   1.00
C154   C     0.16128   0.45861   0.97190   0.00000  Uiso   1.00
C155   C     0.17189   0.45469   0.03856   0.00000  Uiso   1.00
C156   C     0.15361   0.45641   0.09795   0.00000  Uiso   1.00
C157   C     0.12493   0.46140   0.09179   0.00000  Uiso   1.00
C158   C     0.20933   0.43257   0.00169   0.00000  Uiso   1.00
H159   H     0.28309   0.41848   0.07815   0.00000  Uiso   1.00
H160   H     0.29286   0.42232   0.85318   0.00000  Uiso   1.00
H161   H     0.34679   0.43544   0.08322   0.00000  Uiso   1.00
H162   H     0.26182   0.45537   0.04010   0.00000  Uiso   1.00
H163   H     0.35642   0.43833   0.85781   0.00000  Uiso   1.00
C164   C     0.91482   0.37382   1.00756   0.00000  Uiso   1.00
C165   C     0.87751   0.36217   1.00550   0.00000  Uiso   1.00
C166   C     0.84787   0.32282   1.00133   0.00000  Uiso   1.00
C167   C     0.85484   0.29408  -0.00161   0.00000  Uiso   1.00
C168   C     0.89186   0.30551   0.00177   0.00000  Uiso   1.00
C169   C     0.92167   0.34500   0.00568   0.00000  Uiso   1.00
C170   C     0.79522   0.24493  -0.04200   0.00000  Uiso   1.00
H171   H     0.64536   0.07452   0.00034   0.00000  Uiso   1.00
H172   H     0.71001   0.13191  -0.02633   0.00000  Uiso   1.00
H173   H     0.66998   0.20337   0.94056   0.00000  Uiso   1.00
H174   H     0.60532   0.14640   0.96694   0.00000  Uiso   1.00
H175   H     0.75688   0.19222   0.01591   0.00000  Uiso   1.00
O176   O     0.73090   0.20561   0.93603   0.00000  Uiso   1.00
O177   O     0.82551   0.25398  -0.00244   0.00000  Uiso   1.00
C178   C     0.62008   0.10578  -0.01410   0.00000  Uiso   1.00
C179   C     0.65035   0.10259  -0.01132   0.00000  Uiso   1.00
C180   C     0.68742   0.13551  -0.02595   0.00000  Uiso   1.00
C181   C     0.69483   0.17229   0.95696   0.00000  Uiso   1.00
C182   C     0.66474   0.17542   0.95478   0.00000  Uiso   1.00
C183   C     0.62784   0.14276   0.96986   0.00000  Uiso   1.00
C184   C     0.76106   0.21195  -0.02729   0.00000  Uiso   1.00
H185   H     0.81943   0.31482   1.00153   0.00000  Uiso   1.00
H186   H     0.89761   0.28369   0.00087   0.00000  Uiso   1.00
H187   H     0.87105   0.38341   1.00757   0.00000  Uiso   1.00
H188   H     0.79896   0.26521   0.91622   0.00000  Uiso   1.00
H189   H     0.95000   0.35289   0.00760   0.00000  Uiso   1.00
C190   C     0.89495   0.52552   1.02885   0.00000  Uiso   1.00
C191   C     0.88273   0.53037   0.96527   0.00000  Uiso   1.00
C192   C     0.85100   0.53072  -0.03573   0.00000  Uiso   1.00
C193   C     0.83065   0.52623   0.02630   0.00000  Uiso   1.00
C194   C     0.84321   0.52178   0.09048   0.00000  Uiso   1.00
C195   C     0.87524   0.52179   1.09146   0.00000  Uiso   1.00
C196   C     0.77719   0.52366   0.07817   0.00000  Uiso   1.00
H197   H     0.61559   0.46697   0.00960   0.00000  Uiso   1.00
H198   H     0.66950   0.46746   0.04304   0.00000  Uiso   1.00
H199   H     0.70335   0.56242   0.17569   0.00000  Uiso   1.00
H200   H     0.64954   0.56230   0.14215   0.00000  Uiso   1.00
H201   H     0.73528   0.51592   0.01628   0.00000  Uiso   1.00
O202   O     0.72405   0.51945   0.12637   0.00000  Uiso   1.00
O203   O     0.79761   0.52436   0.01919   0.00000  Uiso   1.00
C204   C     0.62861   0.51477   0.07303   0.00000  Uiso   1.00
C205   C     0.63423   0.48757   0.04663   0.00000  Uiso   1.00
C206   C     0.66530   0.48822   0.06496   0.00000  Uiso   1.00
C207   C     0.69125   0.51615   0.10990   0.00000  Uiso   1.00
C208   C     0.68411   0.54138   0.13985   0.00000  Uiso   1.00
C209   C     0.65335   0.54112   0.12088   0.00000  Uiso   1.00
C210   C     0.74461   0.51881   0.06911   0.00000  Uiso   1.00
H211   H     0.84160   0.53362  -0.08555   0.00000  Uiso   1.00
H212   H     0.82834   0.51711   0.14000   0.00000  Uiso   1.00
H213   H     0.89710   0.53284   0.91607   0.00000  Uiso   1.00
H214   H     0.78722   0.52818   0.13031   0.00000  Uiso   1.00
H215   H     0.88394   0.51772   1.14119   0.00000  Uiso   1.00
C216   C     0.38591   0.90077  -0.00283   0.00000  Uiso   1.00
C217   C     0.35507   0.90309   0.00244   0.00000  Uiso   1.00
C218   C     0.31875   0.87030  -0.00833   0.00000  Uiso   1.00
C219   C     0.31286   0.83476  -0.02459   0.00000  Uiso   1.00
C220   C     0.34351   0.83258   0.96991   0.00000  Uiso   1.00
C221   C     0.37959   0.86499   0.98150   0.00000  Uiso   1.00
C222   C     0.24718   0.79080   0.00478   0.00000  Uiso   1.00
H223   H     0.14159   0.61476   1.02450   0.00000  Uiso   1.00
H224   H     0.19210   0.68388   1.03068   0.00000  Uiso   1.00
H225   H     0.11077   0.70998   0.05928   0.00000  Uiso   1.00
H226   H     0.05958   0.64037   0.05404   0.00000  Uiso   1.00
H227   H     0.21225   0.74008   0.95233   0.00000  Uiso   1.00
O228   O     0.18362   0.74258   0.04464   0.00000  Uiso   1.00
O229   O     0.27778   0.80211  -0.04155   0.00000  Uiso   1.00
C230   C     0.09652   0.62205   0.03791   0.00000  Uiso   1.00
C231   C     0.13431   0.63512   1.03179   0.00000  Uiso   1.00
C232   C     0.16327   0.67477   1.03455   0.00000  Uiso   1.00
C233   C     0.15509   0.70238   0.04240   0.00000  Uiso   1.00
C234   C     0.11750   0.68924   0.05130   0.00000  Uiso   1.00
C235   C     0.08840   0.64951   0.04836   0.00000  Uiso   1.00
C236   C     0.21435   0.75691  -0.00363   0.00000  Uiso   1.00
H237   H     0.29553   0.87294  -0.00614   0.00000  Uiso   1.00
H238   H     0.33933   0.80556   0.95608   0.00000  Uiso   1.00
H239   H     0.35910   0.93035   0.01366   0.00000  Uiso   1.00
H240   H     0.25017   0.80750   0.04957   0.00000  Uiso   1.00
H241   H     0.40273   0.86230   0.97590   0.00000  Uiso   1.00
C242   C     0.54090   0.89711   1.02015   0.00000  Uiso   1.00
C243   C     0.53028   0.87169   0.96566   0.00000  Uiso   1.00
C244   C     0.53380   0.84077   0.97052   0.00000  Uiso   1.00
C245   C     0.54956   0.83554   1.02910   0.00000  Uiso   1.00
C246   C     0.56005   0.86105   0.08337   0.00000  Uiso   1.00
C247   C     0.55557   0.89141   0.07930   0.00000  Uiso   1.00
C248   C     0.55141   0.78444   0.97982   0.00000  Uiso   1.00
H249   H     0.58032   0.65461   0.00009   0.00000  Uiso   1.00
H250   H     0.58886   0.71752  -0.01671   0.00000  Uiso   1.00
H251   H     0.47918   0.65913   0.90203   0.00000  Uiso   1.00
H252   H     0.46971   0.59581   0.91992   0.00000  Uiso   1.00
H253   H     0.53993   0.73597   0.04029   0.00000  Uiso   1.00
O254   O     0.53975   0.72833   0.92849   0.00000  Uiso   1.00
O255   O     0.55255   0.80407   0.03889   0.00000  Uiso   1.00
C256   C     0.52427   0.62025  -0.03846   0.00000  Uiso   1.00
C257   C     0.55780   0.65505  -0.02056   0.00000  Uiso   1.00
C258   C     0.56267   0.69089  -0.02961   0.00000  Uiso   1.00
C259   C     0.53422   0.69248   0.94286   0.00000  Uiso   1.00
C260   C     0.50099   0.65802   0.92440   0.00000  Uiso   1.00
C261   C     0.49572   0.62205   0.93467   0.00000  Uiso   1.00
C262   C     0.54421   0.74906  -0.01218   0.00000  Uiso   1.00
H263   H     0.52293   0.82054   0.92929   0.00000  Uiso   1.00
H264   H     0.57125   0.85691   0.12956   0.00000  Uiso   1.00
H265   H     0.51774   0.87475   0.92049   0.00000  Uiso   1.00
H266   H     0.55637   0.79734   0.92714   0.00000  Uiso   1.00
H267   H     0.56340   0.91032   0.12247   0.00000  Uiso   1.00
C268   C     0.49371   0.39519   0.99880   0.00000  Uiso   1.00
C269   C     0.46081   0.36062   0.97831   0.00000  Uiso   1.00
C270   C     0.45468   0.32437   0.99176   0.00000  Uiso   1.00
C271   C     0.48122   0.32208   0.02648   0.00000  Uiso   1.00
C272   C     0.51381   0.35641   0.04735   0.00000  Uiso   1.00
C273   C     0.52034   0.39272   0.03283   0.00000  Uiso   1.00
C274   C     0.46450   0.26023  -0.00689   0.00000  Uiso   1.00
H275   H     0.48282   0.12965   0.08145   0.00000  Uiso   1.00
H276   H     0.47705   0.18318   0.06978   0.00000  Uiso   1.00
H277   H     0.43164   0.14604   0.86724   0.00000  Uiso   1.00
H278   H     0.44013   0.09323   0.87776   0.00000  Uiso   1.00
H279   H     0.45407   0.21585   0.06299   0.00000  Uiso   1.00
O280   O     0.45013   0.20017   0.95430   0.00000  Uiso   1.00
O281   O     0.47427   0.28601   0.04673   0.00000  Uiso   1.00
C282   C     0.46189   0.10738  -0.01942   0.00000  Uiso   1.00
C283   C     0.47105   0.13260   0.03489   0.00000  Uiso   1.00
C284   C     0.46722   0.16330   0.02816   0.00000  Uiso   1.00
C285   C     0.45262   0.16852  -0.03245   0.00000  Uiso   1.00
C286   C     0.44252   0.14241   0.91443   0.00000  Uiso   1.00
C287   C     0.44738   0.11235   0.92041   0.00000  Uiso   1.00
C288   C     0.45614   0.22474   0.00843   0.00000  Uiso   1.00
H289   H     0.42880   0.29800   0.97703   0.00000  Uiso   1.00
H290   H     0.53411   0.35491   0.07532   0.00000  Uiso   1.00
H291   H     0.43964   0.36157   0.95258   0.00000  Uiso   1.00
H292   H     0.46588   0.26949   0.93880   0.00000  Uiso   1.00
H293   H     0.54558   0.41865   0.05054   0.00000  Uiso   1.00
loop_
_geom_bond_atom_site_label_1
_geom_bond_atom_site_label_2
_geom_bond_distance
_geom_bond_site_symmetry_2
_ccdc_geom_bond_type
Ce0    O9      2.263   .     S
Ce0    O10     2.272   .     S
Ce0    O19     2.348   .     S
Ce0    O11     2.285   1_554 S
Ce0    O12     2.306   1_554 S
Ce0    O14     2.254   1_554 S
Ce0    O15     2.244   1_554 S
Ce1    O13     2.294   .     S
Ce1    O15     2.281   .     S
Ce1    O16     2.277   .     S
Ce1    O8      2.276   1_556 S
Ce1    O9      2.286   1_556 S
Ce1    O17     2.288   1_556 S
Ce1    O18     2.283   1_556 S
C2     O8      1.228   .     D
C2     O9      1.401   .     S
C2     C60     1.475   .     S
C3     O10     1.277   .     A
C3     C204    1.475   .     S
C3     O11     1.284   1_554 A
C4     O12     1.290   .     A
C4     O13     1.289   .     A
C4     C256    1.479   1_556 S
C5     O14     1.229   .     D
C5     O15     1.410   .     S
C5     C74     1.476   .     S
C6     O16     1.277   .     A
C6     O17     1.282   1_556 A
C6     C138    1.478   1_556 S
C7     O18     1.290   .     A
C7     O19     1.301   .     A
C7     C268    1.481   1_554 S
O8     Ce1     2.276   1_554 S
O9     Ce1     2.286   1_554 S
O11    Ce0     2.285   1_556 S
O11    C3      1.284   1_556 A
O12    Ce0     2.306   1_556 S
O14    Ce0     2.254   1_556 S
O15    Ce0     2.244   1_556 S
O17    Ce1     2.288   1_554 S
O17    C6      1.282   1_554 A
O18    Ce1     2.283   1_554 S
Ce20   O31     2.277   .     S
Ce20   O34     2.272   .     S
Ce20   O35     2.274   .     S
Ce20   O29     2.271   1_554 S
Ce20   O30     2.300   1_554 S
Ce20   O32     2.310   1_455 S
Ce20   O39     2.305   1_554 S
Ce21   O33     2.300   .     S
Ce21   O36     2.284   .     S
Ce21   O28     2.269   1_554 S
Ce21   O29     2.274   1_654 S
Ce21   O35     2.262   1_655 S
Ce21   O37     2.282   1_554 S
Ce21   O38     2.296   1_654 S
C22    O28     1.226   .     D
C22    C86     1.477   .     S
C22    O29     1.406   1_655 S
C23    O30     1.281   .     A
C23    O31     1.278   1_556 A
C23    C152    1.478   1_556 S
C24    O32     1.297   .     A
C24    O33     1.296   .     A
C24    C164    1.485   1_554 S
C25    O34     1.225   .     D
C25    O35     1.403   .     S
C25    C100    1.474   .     S
C26    O36     1.279   .     A
C26    O37     1.280   1_554 A
C26    C190    1.477   1_554 S
C27    O38     1.296   .     A
C27    O39     1.298   .     A
C27    C230    1.480   1_556 S
O28    Ce21    2.269   1_556 S
O29    Ce20    2.271   1_556 S
O29    Ce21    2.274   1_456 S
O29    C22     1.406   1_455 S
O30    Ce20    2.300   1_556 S
O31    C23     1.278   1_554 A
O32    Ce20    2.310   1_655 S
O35    Ce21    2.262   1_455 S
O37    Ce21    2.282   1_556 S
O37    C26     1.280   1_556 A
O38    Ce21    2.296   1_456 S
O39    Ce20    2.305   1_556 S
Ce40   O51     2.281   .     S
Ce40   O54     2.271   .     S
Ce40   O55     2.265   .     S
Ce40   O59     2.298   .     S
Ce40   O49     2.259   1_566 S
Ce40   O50     2.284   1_556 S
Ce40   O52     2.308   1_565 S
Ce41   O48     2.274   .     S
Ce41   O49     2.264   .     S
Ce41   O53     2.299   .     S
Ce41   O57     2.283   .     S
Ce41   O55     2.262   1_544 S
Ce41   O56     2.282   1_554 S
Ce41   O58     2.304   1_545 S
C42    O48     1.226   .     D
C42    O49     1.401   .     S
C42    C112    1.475   .     S
C43    O51     1.280   .     A
C43    C242    1.472   .     S
C43    O50     1.280   1_556 A
C44    O52     1.298   .     A
C44    O53     1.296   1_556 A
C44    C178    1.484   1_556 S
C45    O54     1.226   .     D
C45    O55     1.402   .     S
C45    C126    1.474   .     S
C46    O57     1.281   .     A
C46    C282    1.474   .     S
C46    O56     1.279   1_554 A
C47    O58     1.297   .     A
C47    C216    1.479   .     S
C47    O59     1.296   1_554 A
O49    Ce40    2.259   1_544 S
O50    Ce40    2.284   1_554 S
O50    C43     1.280   1_554 A
O52    Ce40    2.308   1_545 S
O53    C44     1.296   1_554 A
O55    Ce41    2.262   1_566 S
O56    Ce41    2.282   1_556 S
O56    C46     1.279   1_556 A
O58    Ce41    2.304   1_565 S
O59    C47     1.296   1_556 A
C60    C61     1.405   .     A
C60    C65     1.404   .     A
C61    C62     1.399   .     A
C61    H83     1.083   .     S
C62    C63     1.411   .     A
C62    H81     1.082   .     S
C63    C64     1.400   .     A
C63    O73     1.407   .     S
C64    C65     1.398   .     A
C64    H82     1.083   .     S
C65    H85     1.083   .     S
C66    O73     1.405   .     S
C66    C80     1.334   .     D
C66    H84     1.087   .     S
H67    C75     1.083   .     S
H68    C76     1.082   .     S
H69    C78     1.083   .     S
H70    C79     1.083   .     S
H71    C80     1.087   .     S
O72    C77     1.408   .     S
O72    C80     1.405   .     S
C74    C75     1.403   .     A
C74    C79     1.404   .     A
C75    C76     1.399   .     A
C76    C77     1.411   .     A
C77    C78     1.400   .     A
C78    C79     1.398   .     A
C86    C87     1.403   .     A
C86    C91     1.407   1_655 A
C87    C88     1.400   .     A
C87    H109    1.083   .     S
C88    H107    1.082   .     S
C88    C89     1.409   1_655 A
C89    C90     1.397   .     A
C89    O99     1.404   .     S
C89    C88     1.409   1_455 A
C90    C91     1.397   .     A
C90    H108    1.083   .     S
C91    H111    1.083   .     S
C91    C86     1.407   1_455 A
C92    O99     1.404   .     S
C92    C106    1.332   .     D
C92    H110    1.088   1_455 S
H93    C101    1.082   .     S
H94    C102    1.082   .     S
H95    C104    1.082   .     S
H96    C105    1.083   .     S
H97    C106    1.088   .     S
O98    C103    1.403   .     S
O98    C106    1.404   .     S
C100   C101    1.403   .     A
C100   C105    1.406   1_455 A
C101   C102    1.399   .     A
C102   C103    1.408   .     A
C103   C104    1.398   1_455 A
C104   C105    1.396   .     A
C104   C103    1.398   1_655 A
C105   C100    1.406   1_655 A
H110   C92     1.088   1_655 S
C112   C117    1.405   .     A
C112   C113    1.403   1_545 A
C113   C114    1.398   .     A
C113   H135    1.083   .     S
C113   C112    1.403   1_565 A
C114   H133    1.082   .     S
C114   C115    1.410   1_565 A
C115   C116    1.399   .     A
C115   O125    1.405   .     S
C115   C114    1.410   1_545 A
C116   C117    1.397   .     A
C116   H134    1.083   .     S
C117   H137    1.083   .     S
C118   C132    1.332   .     D
C118   H136    1.088   .     S
C118   O125    1.403   1_565 S
H119   C127    1.083   .     S
H120   C128    1.082   .     S
H121   C130    1.083   .     S
H122   C131    1.083   .     S
H123   C132    1.088   1_545 S
O124   C129    1.405   .     S
O124   C132    1.403   .     S
O125   C118    1.403   1_545 S
C126   C131    1.404   .     A
C126   C127    1.403   1_565 A
C127   C128    1.399   .     A
C127   C126    1.403   1_545 A
C128   C129    1.411   1_545 A
C129   C130    1.399   .     A
C129   C128    1.411   1_565 A
C130   C131    1.396   .     A
C132   H123    1.088   1_565 S
C138   C139    1.405   .     A
C138   C143    1.406   1_554 A
C138   C6      1.478   1_554 S
C139   C140    1.399   .     A
C139   H161    1.083   .     S
C140   H159    1.082   .     S
C140   C141    1.410   1_554 A
C141   C142    1.399   .     A
C141   O151    1.407   .     S
C141   C140    1.410   1_556 A
C142   C143    1.398   .     A
C142   H160    1.083   .     S
C143   H163    1.083   .     S
C143   C138    1.406   1_556 A
C144   C158    1.334   .     D
C144   H162    1.088   .     S
C144   O151    1.405   1_554 S
H145   C153    1.083   .     S
H146   C154    1.082   .     S
H147   C156    1.083   .     S
H148   C157    1.083   .     S
H149   C158    1.087   1_556 S
O150   C155    1.404   .     S
O150   C158    1.402   .     S
O151   C144    1.405   1_556 S
C152   C157    1.406   .     A
C152   C153    1.405   1_554 A
C152   C23     1.478   1_554 S
C153   C154    1.403   .     A
C153   C152    1.405   1_556 A
C154   C155    1.411   1_556 A
C155   C156    1.397   .     A
C155   C154    1.411   1_554 A
C156   C157    1.394   .     A
C158   H149    1.087   1_554 S
C164   C165    1.407   .     A
C164   C169    1.407   1_556 A
C164   C24     1.485   1_556 S
C165   C166    1.396   .     A
C165   H187    1.083   .     S
C166   H185    1.083   .     S
C166   C167    1.409   1_556 A
C167   C168    1.400   .     A
C167   O177    1.407   .     S
C167   C166    1.409   1_554 A
C168   C169    1.401   .     A
C168   H186    1.083   .     S
C169   H189    1.083   .     S
C169   C164    1.407   1_554 A
C170   O177    1.404   .     S
C170   C184    1.333   .     D
C170   H188    1.089   1_554 S
H171   C179    1.083   .     S
H172   C180    1.082   .     S
H173   C182    1.083   .     S
H174   C183    1.083   .     S
H175   C184    1.087   .     S
O176   C181    1.404   .     S
O176   C184    1.403   1_556 S
C178   C179    1.408   .     A
C178   C183    1.407   1_554 A
C178   C44     1.484   1_554 S
C179   C180    1.402   .     A
C180   C181    1.409   1_554 A
C181   C182    1.397   .     A
C181   C180    1.409   1_556 A
C182   C183    1.395   .     A
C183   C178    1.407   1_556 A
C184   O176    1.403   1_554 S
H188   C170    1.089   1_556 S
C190   C191    1.403   .     A
C190   C195    1.404   .     A
C190   C26     1.477   1_556 S
C191   H213    1.084   .     S
C191   C192    1.396   1_556 A
C192   C193    1.401   .     A
C192   H211    1.083   .     S
C192   C191    1.396   1_554 A
C193   C194    1.414   .     A
C193   O203    1.411   .     S
C194   H212    1.078   .     S
C194   C195    1.400   1_554 A
C195   H215    1.083   .     S
C195   C194    1.400   1_556 A
C196   O203    1.406   .     S
C196   C210    1.334   .     D
C196   H214    1.082   .     S
H197   C205    1.083   .     S
H198   C206    1.083   .     S
H199   C208    1.083   .     S
H200   C209    1.084   .     S
H201   C210    1.088   .     S
O202   C207    1.406   .     S
O202   C210    1.406   .     S
C204   C205    1.405   .     A
C204   C209    1.404   .     A
C205   C206    1.399   .     A
C206   C207    1.409   .     A
C207   C208    1.400   .     A
C208   C209    1.398   .     A
C216   C217    1.407   .     A
C216   C221    1.406   1_554 A
C217   C218    1.401   .     A
C217   H239    1.083   .     S
C218   C219    1.407   .     A
C218   H237    1.082   .     S
C219   O229    1.399   .     S
C219   C220    1.396   1_554 A
C220   C221    1.393   .     A
C220   H238    1.083   .     S
C220   C219    1.396   1_556 A
C221   H241    1.083   .     S
C221   C216    1.406   1_556 A
C222   O229    1.401   .     S
C222   C236    1.331   .     D
C222   H240    1.088   .     S
H223   C231    1.083   .     S
H224   C232    1.082   .     S
H225   C234    1.082   .     S
H226   C235    1.083   .     S
H227   C236    1.089   1_556 S
O228   C233    1.405   .     S
O228   C236    1.403   .     S
C230   C235    1.408   .     A
C230   C231    1.405   1_554 A
C230   C27     1.480   1_554 S
C231   C232    1.394   .     A
C231   C230    1.405   1_556 A
C232   C233    1.409   1_556 A
C233   C234    1.398   .     A
C233   C232    1.409   1_554 A
C234   C235    1.398   .     A
C236   H227    1.089   1_554 S
C242   C243    1.403   .     A
C242   C247    1.402   1_556 A
C243   C244    1.395   .     A
C243   H265    1.083   .     S
C244   C245    1.413   .     A
C244   H263    1.081   .     S
C245   C246    1.403   1_556 A
C245   O255    1.410   1_556 S
C246   C247    1.399   .     A
C246   H264    1.083   .     S
C246   C245    1.403   1_554 A
C247   H267    1.084   .     S
C247   C242    1.402   1_554 A
C248   H266    1.085   .     S
C248   O255    1.405   1_556 S
C248   C262    1.332   1_556 D
H249   C257    1.083   .     S
H250   C258    1.083   .     S
H251   C260    1.083   .     S
H252   C261    1.083   .     S
H253   C262    1.089   .     S
O254   C259    1.398   .     S
O254   C262    1.402   1_556 S
O255   C245    1.410   1_554 S
O255   C248    1.405   1_554 S
C256   C257    1.407   .     A
C256   C261    1.406   1_554 A
C256   C4      1.479   1_554 S
C257   C258    1.398   .     A
C258   C259    1.403   1_554 A
C259   C260    1.398   .     A
C259   C258    1.403   1_556 A
C260   C261    1.398   .     A
C261   C256    1.406   1_556 A
C262   C248    1.332   1_554 D
C262   O254    1.402   1_554 S
C268   C269    1.407   .     A
C268   C273    1.406   1_556 A
C268   C7      1.481   1_556 S
C269   C270    1.399   .     A
C269   H291    1.083   .     S
C270   H289    1.083   .     S
C270   C271    1.405   1_556 A
C271   C272    1.399   .     A
C271   O281    1.402   .     S
C271   C270    1.405   1_554 A
C272   C273    1.398   .     A
C272   H290    1.083   .     S
C273   H293    1.082   .     S
C273   C268    1.406   1_554 A
C274   O281    1.403   .     S
C274   C288    1.334   .     D
C274   H292    1.088   1_554 S
H275   C283    1.084   .     S
H276   C284    1.079   .     S
H277   C286    1.083   .     S
H278   C287    1.084   .     S
H279   C288    1.083   .     S
O280   C285    1.413   1_556 S
O280   C288    1.406   1_556 S
C282   C283    1.402   .     A
C282   C287    1.402   1_554 A
C283   C284    1.397   .     A
C284   C285    1.415   .     A
C285   O280    1.413   1_554 S
C285   C286    1.403   1_554 A
C286   C287    1.399   .     A
C286   C285    1.403   1_556 A
C287   C282    1.402   1_556 A
C288   O280    1.406   1_554 S
H292   C274    1.088   1_556 S
