data_kag+N139+E220
_audit_creation_date              2025-01-21
_audit_creation_method            'Materials Studio'
_symmetry_space_group_name_H-M    'P1'
_symmetry_Int_Tables_number       1
_symmetry_cell_setting            triclinic
loop_
_symmetry_equiv_pos_as_xyz
  x,y,z
_cell_length_a                    25.1968
_cell_length_b                    19.3022
_cell_length_c                    15.1575
_cell_angle_alpha                 89.9274
_cell_angle_beta                  91.7019
_cell_angle_gamma                 123.2521
loop_
_atom_site_label
_atom_site_type_symbol
_atom_site_fract_x
_atom_site_fract_y
_atom_site_fract_z
_atom_site_U_iso_or_equiv
_atom_site_adp_type
_atom_site_occupancy
C0     C     0.52458   0.51343   0.67975   0.00000  Uiso   1.00
Sm1    Sm    0.46467   0.50737   0.13112   0.00000  Uiso   1.00
Sm2    Sm    0.54751   0.51308   0.85019   0.00000  Uiso   1.00
C3     C     0.51073   0.41269   0.03275   0.00000  Uiso   1.00
C4     C     0.64456   0.49927   0.88114   0.00000  Uiso   1.00
O5     O     0.52421   0.56772   0.25312   0.00000  Uiso   1.00
O6     O     0.43092   0.45610   0.26414   0.00000  Uiso   1.00
O7     O     0.52054   0.60539   0.87597   0.00000  Uiso   1.00
O8     O     0.52191   0.58353   0.01603   0.00000  Uiso   1.00
O9     O     0.37262   0.43779   1.05529   0.00000  Uiso   1.00
O10    O     0.39724   0.54820   0.12942   0.00000  Uiso   1.00
O11    O     0.48175   0.46221   0.73188   0.00000  Uiso   1.00
O12    O     0.57915   0.56400   0.71668   0.00000  Uiso   1.00
O13    O     0.50273   0.42638   0.11199   0.00000  Uiso   1.00
O14    O     0.49540   0.44456   0.97191   0.00000  Uiso   1.00
O15    O     0.64205   0.55806  -0.08469   0.00000  Uiso   1.00
O16    O     0.59522   0.44591   0.83521   0.00000  Uiso   1.00
C17    C     0.48184   0.51387   0.30404   0.00000  Uiso   1.00
C18    C     0.50929   0.61699   0.95408   0.00000  Uiso   1.00
C19    C     0.35502   0.48420   0.08371   0.00000  Uiso   1.00
C20    C     1.01607   0.46405   0.34767   0.00000  Uiso   1.00
Sm21   Sm    0.97946   0.50262   0.88899   0.00000  Uiso   1.00
Sm22   Sm    0.03032   0.46251   0.17726   0.00000  Uiso   1.00
C23    C     0.10068   0.59769   1.01467   0.00000  Uiso   1.00
C24    C     0.11437   0.43069   0.13122   0.00000  Uiso   1.00
O25    O     1.00204   0.44587   0.78030   0.00000  Uiso   1.00
O26    O    -0.00166   0.55296   0.75414   0.00000  Uiso   1.00
O27    O     0.92538   0.39689   0.14226   0.00000  Uiso   1.00
O28    O     0.96356   0.43243   1.01347   0.00000  Uiso   1.00
O29    O     0.92477   0.55567  -0.06643   0.00000  Uiso   1.00
O30    O     0.87676   0.44231   0.85621   0.00000  Uiso   1.00
O31    O     0.02568   0.52294   0.29728   0.00000  Uiso   1.00
O32    O     1.00998   0.40105   0.30810   0.00000  Uiso   1.00
O33    O     0.08275   0.58898   0.93337   0.00000  Uiso   1.00
O34    O     0.05791   0.56324   0.07278   0.00000  Uiso   1.00
O35    O     0.05923   0.39413   1.09340   0.00000  Uiso   1.00
O36    O     0.12467   0.48171   0.19384   0.00000  Uiso   1.00
C37    C     0.00575   0.49738   0.72332   0.00000  Uiso   1.00
C38    C     0.91497   0.39449   0.05986   0.00000  Uiso   1.00
C39    C     0.87339   0.49898   0.89380   0.00000  Uiso   1.00
C40    C     0.50074   0.00920   0.31319   0.00000  Uiso   1.00
Sm41   Sm    0.54510   0.06183   0.86688   0.00000  Uiso   1.00
Sm42   Sm    0.48073   0.97971   0.14092   0.00000  Uiso   1.00
C43    C     0.49433   0.89929   0.96580   0.00000  Uiso   1.00
C44    C     0.36436   0.85575   0.09625   0.00000  Uiso   1.00
O45    O     0.49297   0.05310   0.74136   0.00000  Uiso   1.00
O46    O     0.57550   1.04588   0.73597   0.00000  Uiso   1.00
O47    O     0.53597   0.11624   0.11395   0.00000  Uiso   1.00
O48    O     0.49720   0.07701   0.98036   0.00000  Uiso   1.00
O49    O     0.63262   0.10418  -0.05294   0.00000  Uiso   1.00
O50    O     0.62587   0.19515   0.87244   0.00000  Uiso   1.00
O51    O     0.53675   0.99792   0.26577   0.00000  Uiso   1.00
O52    O     0.45421   0.00441   0.27049   0.00000  Uiso   1.00
O53    O     0.48950   0.92487   0.89004   0.00000  Uiso   1.00
O54    O     0.52508   0.95276   0.02805   0.00000  Uiso   1.00
O55    O     0.38929   0.92837   1.06452   0.00000  Uiso   1.00
O56    O     0.40114   0.84824   0.14991   0.00000  Uiso   1.00
C57    C     0.53064   1.04545   0.69327   0.00000  Uiso   1.00
C58    C     0.52819   0.13541   0.03673   0.00000  Uiso   1.00
C59    C     0.65938   0.17965   0.92400   0.00000  Uiso   1.00
C60    C     0.49099   0.51689   0.40113   0.00000  Uiso   1.00
C61    C     0.53571   0.59118   0.44771   0.00000  Uiso   1.00
C62    C     0.54695   0.58874   0.53844   0.00000  Uiso   1.00
C63    C     0.51244   0.51449   0.58440   0.00000  Uiso   1.00
C64    C     0.46673   0.44171   0.53886   0.00000  Uiso   1.00
C65    C     0.45646   0.44282   0.44802   0.00000  Uiso   1.00
O66    O     0.53494   0.69262   0.36021   0.00000  Uiso   1.00
O67    O     0.62930   0.71936   0.41191   0.00000  Uiso   1.00
N68    N     0.56756   0.66980   0.40515   0.00000  Uiso   1.00
H69    H     0.44040   0.38353   0.57316   0.00000  Uiso   1.00
H70    H     0.42252   0.38504   0.41393   0.00000  Uiso   1.00
H71    H     0.58147   0.64561   0.57390   0.00000  Uiso   1.00
C72    C     0.01368   0.49045   0.62833   0.00000  Uiso   1.00
C73    C     0.04119   0.56047   0.57391   0.00000  Uiso   1.00
C74    C     0.04226   0.55053   0.48286   0.00000  Uiso   1.00
C75    C     1.01567   0.47182   0.44414   0.00000  Uiso   1.00
C76    C     0.98993   0.40257   0.49819   0.00000  Uiso   1.00
C77    C     0.98890   0.41180   0.58967   0.00000  Uiso   1.00
O78    O     0.12812   0.69699   0.60090   0.00000  Uiso   1.00
O79    O     0.03038   0.66734   0.62356   0.00000  Uiso   1.00
N80    N     0.06783   0.64209   0.60943   0.00000  Uiso   1.00
H81    H     0.96917   0.34135   0.46934   0.00000  Uiso   1.00
H82    H     0.96643   0.35697   0.62986   0.00000  Uiso   1.00
H83    H     0.06327   0.60495   0.44216   0.00000  Uiso   1.00
C84    C     0.51113   0.02431   0.40991   0.00000  Uiso   1.00
C85    C     0.49193   0.07068   0.45614   0.00000  Uiso   1.00
C86    C     0.49720   0.07525   0.54891   0.00000  Uiso   1.00
C87    C     0.52359   1.03791   0.59609   0.00000  Uiso   1.00
C88    C     0.54488   0.99534   0.54978   0.00000  Uiso   1.00
C89    C     0.53828   0.98805   0.45789   0.00000  Uiso   1.00
O90    O     0.42941   0.12823   0.44949   0.00000  Uiso   1.00
O91    O     0.49437   0.15404   0.33871   0.00000  Uiso   1.00
N92    N     0.46844   0.11468   0.41072   0.00000  Uiso   1.00
H93    H     0.56550   0.96609   0.58487   0.00000  Uiso   1.00
H94    H     0.55308   0.95207   0.42438   0.00000  Uiso   1.00
H95    H     0.48299   0.11093   0.58443   0.00000  Uiso   1.00
C96    C     0.28777   0.45660   1.08000   0.00000  Uiso   1.00
C97    C     0.26240   0.48734   1.01918   0.00000  Uiso   1.00
C98    C     0.19963   0.46615   1.02819   0.00000  Uiso   1.00
C99    C     0.16519   0.42178   1.10170   0.00000  Uiso   1.00
C100   C     0.18960   0.38817   0.15900   0.00000  Uiso   1.00
C101   C     0.24966   0.40339   0.14648   0.00000  Uiso   1.00
O102   O     0.31633   0.51748   0.88520   0.00000  Uiso   1.00
O103   O     0.32345   0.62281   0.96118   0.00000  Uiso   1.00
N104   N     0.30078   0.54393   0.95228   0.00000  Uiso   1.00
H105   H     0.16388   0.35427   0.21638   0.00000  Uiso   1.00
H106   H     0.26820   0.37837   0.19313   0.00000  Uiso   1.00
H107   H     0.18074   0.49260   0.98375   0.00000  Uiso   1.00
C108   C     0.85040   0.34467   0.02016   0.00000  Uiso   1.00
C109   C     0.83420   0.27782  -0.03681   0.00000  Uiso   1.00
C110   C     0.77172   0.22614  -0.06927   0.00000  Uiso   1.00
C111   C     0.72530   0.24128  -0.04812   0.00000  Uiso   1.00
C112   C     0.74123   0.30806   0.00795   0.00000  Uiso   1.00
C113   C     0.80333   0.35842   0.04363   0.00000  Uiso   1.00
O114   O     0.87194   0.18989  -0.02235   0.00000  Uiso   1.00
O115   O     0.92464   0.30127   0.89102   0.00000  Uiso   1.00
N116   N     0.87907   0.25678  -0.05510   0.00000  Uiso   1.00
H117   H     0.70549   0.31947   0.02625   0.00000  Uiso   1.00
H118   H     0.81483   0.40819   0.08919   0.00000  Uiso   1.00
H119   H     0.75909   0.17270  -0.10986   0.00000  Uiso   1.00
C120   C     0.81480   0.49924  -0.11000   0.00000  Uiso   1.00
C121   C     0.77251   0.46687   0.81525   0.00000  Uiso   1.00
C122   C     0.71551   0.46336   0.81647   0.00000  Uiso   1.00
C123   C     0.70148   0.49586  -0.11209   0.00000  Uiso   1.00
C124   C     0.74445   0.53058  -0.03961   0.00000  Uiso   1.00
C125   C     0.80035   0.53146  -0.03811   0.00000  Uiso   1.00
O126   O     0.74436   0.38789   0.68139   0.00000  Uiso   1.00
O127   O     0.84622   0.49081   0.70642   0.00000  Uiso   1.00
N128   N     0.78884   0.44363   0.73534   0.00000  Uiso   1.00
H129   H     0.73472   0.55676   0.01600   0.00000  Uiso   1.00
H130   H     0.83210   0.55676   0.01962   0.00000  Uiso   1.00
H131   H     0.68413   0.44086   0.75842   0.00000  Uiso   1.00
C132   C     0.29804   0.78749   1.07399   0.00000  Uiso   1.00
C133   C     0.27184   0.70613   0.10479   0.00000  Uiso   1.00
C134   C     0.20759   0.64575   0.08593   0.00000  Uiso   1.00
C135   C     0.16805   0.66282   1.03803   0.00000  Uiso   1.00
C136   C     0.19466   0.74293   1.00540   0.00000  Uiso   1.00
C137   C     0.25869   0.80444   1.02320   0.00000  Uiso   1.00
O138   O     0.28488   0.63246   0.21942   0.00000  Uiso   1.00
O139   O     0.36087   0.69474   0.12026   0.00000  Uiso   1.00
N140   N     0.30921   0.68229   0.15321   0.00000  Uiso   1.00
H141   H     0.16564   0.75785   0.96619   0.00000  Uiso   1.00
H142   H     0.27730   0.86580   0.99776   0.00000  Uiso   1.00
H143   H     0.19015   0.58456   0.10469   0.00000  Uiso   1.00
C144   C     0.47840   0.81280   0.97410   0.00000  Uiso   1.00
C145   C     0.45210   0.75618   0.90128   0.00000  Uiso   1.00
C146   C     0.45810   0.68835   0.89923   0.00000  Uiso   1.00
C147   C     0.48760   0.67308   0.96935   0.00000  Uiso   1.00
C148   C     0.50633   0.72278   1.04595   0.00000  Uiso   1.00
C149   C     0.50186   0.79201   1.04823   0.00000  Uiso   1.00
O150   O     0.43786   0.76306   0.74717   0.00000  Uiso   1.00
O151   O     0.37204   0.77037   0.83769   0.00000  Uiso   1.00
N152   N     0.42247   0.76905   0.82677   0.00000  Uiso   1.00
H153   H     0.52949   0.71229   0.10077   0.00000  Uiso   1.00
H154   H     0.52154   0.83303   0.10542   0.00000  Uiso   1.00
H155   H     0.44189   0.64904   0.84044   0.00000  Uiso   1.00
C156   C     0.53227   0.35671   0.01506   0.00000  Uiso   1.00
C157   C     0.50528   0.29731  -0.05526   0.00000  Uiso   1.00
C158   C     0.51363   0.23125  -0.05459   0.00000  Uiso   1.00
C159   C     0.54399   0.21972   0.01772   0.00000  Uiso   1.00
C160   C     0.57625   0.28306   0.08160   0.00000  Uiso   1.00
C161   C     0.57081   0.35116   0.07979   0.00000  Uiso   1.00
O162   O     0.46479   0.27628   0.79718   0.00000  Uiso   1.00
O163   O     0.41327   0.29579  -0.09790   0.00000  Uiso   1.00
N164   N     0.46287   0.29652   0.87847   0.00000  Uiso   1.00
H165   H     0.60138   0.27676   0.13687   0.00000  Uiso   1.00
H166   H     0.59231   0.39609   0.13377   0.00000  Uiso   1.00
H167   H     0.48879   0.18296   0.89510   0.00000  Uiso   1.00
loop_
_geom_bond_atom_site_label_1
_geom_bond_atom_site_label_2
_geom_bond_distance
_geom_bond_site_symmetry_2
_ccdc_geom_bond_type
C0     O11     1.283   .     A
C0     O12     1.281   .     A
C0     C63     1.471   .     S
Sm1    O5      2.225   .     S
Sm1    O6      2.223   .     S
Sm1    O8      2.259   .     S
Sm1    O10     2.230   .     S
Sm1    O13     2.261   .     S
Sm1    O9      2.221   1_554 S
Sm2    O7      2.266   .     S
Sm2    O11     2.229   .     S
Sm2    O12     2.220   .     S
Sm2    O14     2.261   .     S
Sm2    O16     2.214   .     S
Sm2    O15     2.235   1_556 S
C3     O13     1.275   .     A
C3     C156    1.479   .     S
C3     O14     1.271   1_554 A
C4     O16     1.279   .     A
C4     O15     1.282   1_556 A
C4     C123    1.472   1_556 S
O5     C17     1.283   .     A
O6     C17     1.281   .     A
O7     C18     1.274   .     A
O8     C18     1.267   1_554 A
O9     Sm1     2.221   1_556 S
O9     C19     1.278   1_556 A
O10    C19     1.286   .     A
O14    C3      1.271   1_556 A
O15    Sm2     2.235   1_554 S
O15    C4      1.282   1_554 A
C17    C60     1.479   .     S
C18    C147    1.477   .     S
C18    O8      1.267   1_556 A
C19    O9      1.278   1_554 A
C19    C96     1.470   1_554 S
C20    O32     1.286   .     A
C20    C75     1.471   .     S
C20    O31     1.281   1_655 A
Sm21   O25     2.232   .     S
Sm21   O28     2.236   .     S
Sm21   O30     2.218   .     S
Sm21   O26     2.212   1_655 S
Sm21   O29     2.238   1_556 S
Sm21   O33     2.268   1_655 S
Sm22   O31     2.203   .     S
Sm22   O34     2.312   .     S
Sm22   O36     2.202   .     S
Sm22   O27     2.263   1_455 S
Sm22   O32     2.234   1_455 S
Sm22   O35     2.237   1_554 S
C23    O33     1.279   .     A
C23    C135    1.488   .     S
C23    O34     1.284   1_556 A
C24    O36     1.283   .     A
C24    O35     1.279   1_554 A
C24    C99     1.465   1_554 S
O25    C37     1.282   1_655 A
O26    C37     1.277   .     A
O26    Sm21    2.212   1_455 S
O27    C38     1.264   .     A
O27    Sm22    2.263   1_655 S
O28    C38     1.263   1_556 A
O29    Sm21    2.238   1_554 S
O29    C39     1.280   1_554 A
O30    C39     1.279   .     A
O31    C20     1.281   1_455 A
O32    Sm22    2.234   1_655 S
O33    Sm21    2.268   1_455 S
O34    C23     1.284   1_554 A
O35    Sm22    2.237   1_556 S
O35    C24     1.279   1_556 A
C37    C72     1.476   .     S
C37    O25     1.282   1_455 A
C38    C108    1.470   .     S
C38    O28     1.263   1_554 A
C39    O29     1.280   1_556 A
C39    C120    1.478   1_556 S
C40    O52     1.280   .     A
C40    C84     1.482   .     S
C40    O51     1.282   1_545 A
Sm41   O45     2.232   .     S
Sm41   O48     2.239   .     S
Sm41   O50     2.240   .     S
Sm41   O46     2.229   1_545 S
Sm41   O49     2.208   1_556 S
Sm41   O53     2.245   1_545 S
Sm42   O51     2.235   .     S
Sm42   O54     2.280   .     S
Sm42   O56     2.217   .     S
Sm42   O47     2.249   1_565 S
Sm42   O52     2.227   1_565 S
Sm42   O55     2.230   1_554 S
C43    O53     1.278   .     A
C43    C144    1.494   .     S
C43    O54     1.280   1_556 A
C44    O56     1.282   .     A
C44    O55     1.281   1_554 A
C44    C132    1.482   1_554 S
O45    C57     1.284   1_545 A
O46    C57     1.282   .     A
O46    Sm41    2.229   1_565 S
O47    C58     1.269   .     A
O47    Sm42    2.249   1_545 S
O48    C58     1.268   1_556 A
O49    Sm41    2.208   1_554 S
O49    C59     1.278   1_554 A
O50    C59     1.285   .     A
O51    C40     1.282   1_565 A
O52    Sm42    2.227   1_545 S
O53    Sm41    2.245   1_565 S
O54    C43     1.280   1_554 A
O55    Sm42    2.230   1_556 S
O55    C44     1.281   1_556 A
C57    C87     1.476   .     S
C57    O45     1.284   1_565 A
C58    C159    1.478   .     S
C58    O48     1.268   1_554 A
C59    O49     1.278   1_556 A
C59    C111    1.465   1_556 S
C60    C61     1.417   .     A
C60    C65     1.406   .     A
C61    C62     1.402   .     A
C61    N68     1.434   .     S
C62    C63     1.401   .     A
C62    H71     1.085   .     S
C63    C64     1.399   .     A
C64    C65     1.396   .     A
C64    H69     1.083   .     S
C65    H70     1.082   .     S
O66    N68     1.302   .     A
O67    N68     1.306   .     A
C72    C73     1.411   .     A
C72    C77     1.407   1_455 A
C73    C74     1.397   .     A
C73    N80     1.429   .     S
C74    H83     1.083   .     S
C74    C75     1.401   1_455 A
C75    C76     1.399   .     A
C75    C74     1.401   1_655 A
C76    C77     1.401   .     A
C76    H81     1.082   .     S
C77    H82     1.083   .     S
C77    C72     1.407   1_655 A
O78    N80     1.301   .     A
O79    N80     1.300   .     A
C84    C85     1.422   .     A
C84    C89     1.407   1_545 A
C85    C86     1.407   .     A
C85    N92     1.439   .     S
C86    H95     1.084   .     S
C86    C87     1.403   1_545 A
C87    C88     1.401   .     A
C87    C86     1.403   1_565 A
C88    C89     1.396   .     A
C88    H93     1.085   .     S
C89    H94     1.084   .     S
C89    C84     1.407   1_565 A
O90    N92     1.303   .     A
O91    N92     1.301   .     A
C96    C97     1.411   .     A
C96    C101    1.402   1_556 A
C96    C19     1.470   1_556 S
C97    C98     1.411   .     A
C97    N104    1.433   .     S
C98    C99     1.403   .     A
C98    H107    1.090   .     S
C99    C100    1.399   1_556 A
C99    C24     1.465   1_556 S
C100   C101    1.394   .     A
C100   H105    1.082   .     S
C100   C99     1.399   1_554 A
C101   H106    1.085   .     S
C101   C96     1.402   1_554 A
O102   N104    1.301   .     A
O103   N104    1.306   .     A
C108   C109    1.408   .     A
C108   C113    1.405   .     A
C109   C110    1.396   .     A
C109   N116    1.429   .     S
C110   C111    1.398   .     A
C110   H119    1.083   .     S
C111   C112    1.400   .     A
C111   C59     1.465   1_554 S
C112   C113    1.403   .     A
C112   H117    1.081   .     S
C113   H118    1.081   .     S
O114   N116    1.302   .     A
O115   N116    1.302   1_556 A
N116   O115    1.302   1_554 A
C120   C125    1.407   .     A
C120   C121    1.418   1_554 A
C120   C39     1.478   1_554 S
C121   C122    1.401   .     A
C121   N128    1.439   .     S
C121   C120    1.418   1_556 A
C122   H131    1.082   .     S
C122   C123    1.400   1_556 A
C123   C124    1.401   .     A
C123   C122    1.400   1_554 A
C123   C4      1.472   1_554 S
C124   C125    1.399   .     A
C124   H129    1.084   .     S
C125   H130    1.084   .     S
O126   N128    1.307   .     A
O127   N128    1.306   .     A
C132   C137    1.412   .     A
C132   C133    1.414   1_556 A
C132   C44     1.482   1_556 S
C133   C134    1.402   .     A
C133   N140    1.439   .     S
C133   C132    1.414   1_554 A
C134   H143    1.052   .     S
C134   C135    1.394   1_554 A
C135   C136    1.402   .     A
C135   C134    1.394   1_556 A
C136   C137    1.400   .     A
C136   H141    1.084   .     S
C137   H142    1.083   .     S
O138   N140    1.302   .     A
O139   N140    1.302   .     A
C144   C145    1.420   .     A
C144   C149    1.412   .     A
C145   C146    1.398   .     A
C145   N152    1.431   .     S
C146   C147    1.401   .     A
C146   H155    1.085   .     S
C147   C148    1.402   .     A
C148   C149    1.402   .     A
C148   H153    1.083   1_556 S
C149   H154    1.082   1_556 S
O150   N152    1.303   .     A
O151   N152    1.300   .     A
H153   C148    1.083   1_554 S
H154   C149    1.082   1_554 S
C156   C157    1.421   .     A
C156   C161    1.405   .     A
C157   C158    1.401   .     A
C157   N164    1.438   1_554 S
C158   C159    1.404   .     A
C158   H167    1.084   1_554 S
C159   C160    1.400   .     A
C160   C161    1.395   .     A
C160   H165    1.082   .     S
C161   H166    1.084   .     S
O162   N164    1.303   .     A
O163   N164    1.303   1_554 A
N164   C157    1.438   1_556 S
N164   O163    1.303   1_556 A
H167   C158    1.084   1_556 S
