data_kag+N155+E15
_audit_creation_date              2025-01-21
_audit_creation_method            'Materials Studio'
_symmetry_space_group_name_H-M    'P1'
_symmetry_Int_Tables_number       1
_symmetry_cell_setting            triclinic
loop_
_symmetry_equiv_pos_as_xyz
  x,y,z
_cell_length_a                    23.1006
_cell_length_b                    24.9830
_cell_length_c                    9.8687
_cell_angle_alpha                 87.7807
_cell_angle_beta                  90.2637
_cell_angle_gamma                 128.6518
loop_
_atom_site_label
_atom_site_type_symbol
_atom_site_fract_x
_atom_site_fract_y
_atom_site_fract_z
_atom_site_U_iso_or_equiv
_atom_site_adp_type
_atom_site_occupancy
C0     C     0.50886   0.34901   0.09924   0.00000  Uiso   1.00
Ho1    Ho    0.46501   0.41722   0.00579   0.00000  Uiso   1.00
C2     C     0.57597   0.69187   0.96802   0.00000  Uiso   1.00
Ho3    Ho    0.53165   0.56744   0.99358   0.00000  Uiso   1.00
O4     O     0.44603   0.33282   0.13108   0.00000  Uiso   1.00
O5     O     0.55002   0.40433   1.02467   0.00000  Uiso   1.00
O6     O     0.43892   0.40582   0.23145   0.00000  Uiso   1.00
O7     O     0.52513   0.50120   0.14841   0.00000  Uiso   1.00
C8     C     0.47822   0.46547   0.25599   0.00000  Uiso   1.00
C9     C     0.49466   0.53308   0.74283   0.00000  Uiso   1.00
O10    O     0.58984   0.47703  -0.00311   0.00000  Uiso   1.00
O11    O     0.63739   0.58989   0.95302   0.00000  Uiso   1.00
O12    O     0.55586   0.65320   0.86779   0.00000  Uiso   1.00
O13    O     0.57256   0.66407   0.08236   0.00000  Uiso   1.00
O14    O     0.51341   0.58690   0.78752   0.00000  Uiso   1.00
O15    O     0.50302   0.49555   0.83967   0.00000  Uiso   1.00
O16    O     0.41468   0.52039   1.02995   0.00000  Uiso   1.00
O17    O     0.36356   0.40786   0.01528   0.00000  Uiso   1.00
C18    C     0.35863   0.45604   1.02970   0.00000  Uiso   1.00
C19    C     0.64434   0.54221  -0.03391   0.00000  Uiso   1.00
C20    C     0.14039   0.45300   0.03087   0.00000  Uiso   1.00
Ho21   Ho    0.05027   0.48000  -0.01236   0.00000  Uiso   1.00
C22    C     0.85629   0.53747   0.93749   0.00000  Uiso   1.00
Ho23   Ho    0.94599   0.50837   0.96072   0.00000  Uiso   1.00
O24    O     0.10402   0.45414   0.12685   0.00000  Uiso   1.00
O25    O     0.12874   0.46662   0.91238   0.00000  Uiso   1.00
O26    O     0.05547   0.46569   0.21319   0.00000  Uiso   1.00
O27    O     0.98811   0.48846   0.12206   0.00000  Uiso   1.00
C28    C     0.01278   0.47806   0.23676   0.00000  Uiso   1.00
C29    C    -0.02307   0.51650   0.70999   0.00000  Uiso   1.00
O30    O     0.13010   0.59188   0.00421   0.00000  Uiso   1.00
O31    O     0.04797   0.61491   0.98087   0.00000  Uiso   1.00
O32    O     0.88892   0.53559   0.83523   0.00000  Uiso   1.00
O33    O     0.87005   0.52192   0.05158   0.00000  Uiso   1.00
O34    O     0.93481   0.52651   0.75345   0.00000  Uiso   1.00
O35    O     0.00918   0.50160   0.80980   0.00000  Uiso   1.00
O36    O     0.86488   0.39537   0.94709   0.00000  Uiso   1.00
O37    O     0.94838   0.37408  -0.02835   0.00000  Uiso   1.00
C38    C     0.88163   0.35422   0.95609   0.00000  Uiso   1.00
C39    C     0.11359   0.63304   0.00253   0.00000  Uiso   1.00
C40    C     0.56788   0.88463   0.97681   0.00000  Uiso   1.00
Ho41   Ho    0.52169   0.95531   0.99991   0.00000  Uiso   1.00
C42    C     0.50642   0.15190   0.08563   0.00000  Uiso   1.00
Ho43   Ho    0.46036   0.03549  -0.01114   0.00000  Uiso   1.00
O44    O     0.54666   0.90189   0.87646   0.00000  Uiso   1.00
O45    O     0.56327   0.90415   0.09159   0.00000  Uiso   1.00
O46    O     0.51985   0.93140   0.78233   0.00000  Uiso   1.00
O47    O     0.48686  -0.01016   0.84827   0.00000  Uiso   1.00
C48    C     0.49497  -0.03965   0.74194   0.00000  Uiso   1.00
C49    C     0.45702   0.98818   0.24633   0.00000  Uiso   1.00
O50    O     0.40379   0.86849   1.02909   0.00000  Uiso   1.00
O51    O     0.35707   0.92667  -0.00504   0.00000  Uiso   1.00
O52    O     0.44139   0.09594   0.10700   0.00000  Uiso   1.00
O53    O     0.54837   0.14513   1.01756   0.00000  Uiso   1.00
O54    O     0.41924   0.00170   0.20182   0.00000  Uiso   1.00
O55    O     0.51142   1.01076   0.15144   0.00000  Uiso   1.00
O56    O     0.58627   0.11787  -0.01377   0.00000  Uiso   1.00
O57    O     0.62834   0.05525   0.96633   0.00000  Uiso   1.00
C58    C     0.63907   0.11261  -0.02994   0.00000  Uiso   1.00
C59    C     0.34968   0.87114   1.02039   0.00000  Uiso   1.00
N60    N     0.49999   0.57454   0.50934   0.00000  Uiso   1.00
N61    N     0.49798   0.55816   0.38322   0.00000  Uiso   1.00
C62    C     0.47981   0.49560   0.38317   0.00000  Uiso   1.00
C63    C     0.47011   0.47066   0.51772   0.00000  Uiso   1.00
C64    C     0.48422   0.52333   0.59485   0.00000  Uiso   1.00
H65    H     0.45913   0.42358   0.55372   0.00000  Uiso   1.00
H66    H     0.51578   0.62199   0.53631   0.00000  Uiso   1.00
H67    H     0.50995   0.59006   0.29841   0.00000  Uiso   1.00
N68    N     0.95773   0.51816   0.35875   0.00000  Uiso   1.00
N69    N     0.95209   0.53260   0.48129   0.00000  Uiso   1.00
C70    C     0.98520   0.51641   0.56573   0.00000  Uiso   1.00
C71    C     0.01475   0.49125   0.49442   0.00000  Uiso   1.00
C72    C     0.99509   0.49310   0.36269   0.00000  Uiso   1.00
H73    H     0.04363   0.47275   0.53269   0.00000  Uiso   1.00
H74    H     0.93622   0.52587   0.27393   0.00000  Uiso   1.00
H75    H     0.92366   0.55100   0.50639   0.00000  Uiso   1.00
N76    N     0.39612   0.93378   0.59102   0.00000  Uiso   1.00
N77    N     0.38563   0.93881   0.46140   0.00000  Uiso   1.00
C78    C     0.44775  -0.03669   0.38932   0.00000  Uiso   1.00
C79    C     0.50054  -0.02670   0.47863   0.00000  Uiso   1.00
C80    C     0.46496  -0.04577   0.60622   0.00000  Uiso   1.00
H81    H     0.55782  -0.00351   0.45608   0.00000  Uiso   1.00
H82    H     0.35720   0.91842   0.66843   0.00000  Uiso   1.00
H83    H     0.33760   0.92898   0.42378   0.00000  Uiso   1.00
N84    N     0.17762   0.38884   0.14646   0.00000  Uiso   1.00
N85    N     0.23424   0.38798   1.14254   0.00000  Uiso   1.00
C86    C     0.28476   0.43643   0.05046   0.00000  Uiso   1.00
C87    C     0.25899   0.46897  -0.00839   0.00000  Uiso   1.00
C88    C     0.19076   0.43698   0.05520   0.00000  Uiso   1.00
H89    H     0.28672   0.51103  -0.08381   0.00000  Uiso   1.00
H90    H     0.13113   0.35720   1.21096   0.00000  Uiso   1.00
H91    H     0.23931   0.35664   1.20563   0.00000  Uiso   1.00
N92    N     0.77350   0.17232  -0.05359   0.00000  Uiso   1.00
N93    N     0.83674   0.23525  -0.05777   0.00000  Uiso   1.00
C94    C     0.82249   0.27973  -0.05044   0.00000  Uiso   1.00
C95    C     0.74610   0.24323  -0.04172   0.00000  Uiso   1.00
C96    C     0.71717   0.17492  -0.04291   0.00000  Uiso   1.00
H97    H     0.71635   0.26330   0.96709   0.00000  Uiso   1.00
H98    H     0.76950   0.12835  -0.05609   0.00000  Uiso   1.00
H99    H     0.88883   0.24716  -0.06383   0.00000  Uiso   1.00
N100   N     0.76259   0.60360   0.83458   0.00000  Uiso   1.00
N101   N     0.81721   0.60024   0.82364   0.00000  Uiso   1.00
C102   C     0.80863   0.55713   0.92296   0.00000  Uiso   1.00
C103   C     0.74590   0.53172   0.00030   0.00000  Uiso   1.00
C104   C     0.71779   0.56180   0.93969   0.00000  Uiso   1.00
H105   H     0.72219   0.49445   0.08443   0.00000  Uiso   1.00
H106   H     0.75410   0.63109   0.76657   0.00000  Uiso   1.00
H107   H     0.85864   0.62595   0.74770   0.00000  Uiso   1.00
N108   N     0.18923   0.71726   1.17390   0.00000  Uiso   1.00
N109   N     0.25234   0.77998   1.17926   0.00000  Uiso   1.00
C110   C     0.27543   0.80716   0.05191   0.00000  Uiso   1.00
C111   C     0.22568   0.75898   0.96073   0.00000  Uiso   1.00
C112   C     0.17148   0.70286   1.04322   0.00000  Uiso   1.00
H113   H     0.23173   0.76199   0.85144   0.00000  Uiso   1.00
H114   H     0.16146   0.68328   1.25803   0.00000  Uiso   1.00
H115   H     0.28133   0.80156   0.26825   0.00000  Uiso   1.00
N116   N     0.62930   0.79957  -0.16597   0.00000  Uiso   1.00
N117   N     0.62759   0.85128  -0.16234   0.00000  Uiso   1.00
C118   C     0.59560   0.84656  -0.04413   0.00000  Uiso   1.00
C119   C     0.57730   0.79007   0.03283   0.00000  Uiso   1.00
C120   C     0.59885   0.76122  -0.04960   0.00000  Uiso   1.00
H121   H     0.54404   0.76795   0.12563   0.00000  Uiso   1.00
H122   H     0.64733   0.78893  -0.25005   0.00000  Uiso   1.00
H123   H     0.64398   0.88698  -0.24286   0.00000  Uiso   1.00
N124   N     0.60048   0.27618   1.12199   0.00000  Uiso   1.00
N125   N     0.60110   0.32928   1.12644   0.00000  Uiso   1.00
C126   C     0.53069   0.30635   1.13469   0.00000  Uiso   1.00
C127   C     0.48309   0.23528   1.13844   0.00000  Uiso   1.00
C128   C     0.52966   0.21837   1.12675   0.00000  Uiso   1.00
H129   H     0.42347   0.20155   1.12843   0.00000  Uiso   1.00
H130   H     0.64758   0.28001   1.10590   0.00000  Uiso   1.00
H131   H     0.64881   0.38018   1.11332   0.00000  Uiso   1.00
loop_
_geom_bond_atom_site_label_1
_geom_bond_atom_site_label_2
_geom_bond_distance
_geom_bond_site_symmetry_2
_ccdc_geom_bond_type
C0     O4      1.277   .     A
C0     O5      1.281   1_554 A
C0     C126    1.468   1_554 S
Ho1    O4      2.194   .     S
Ho1    O6      2.270   .     S
Ho1    O7      2.210   .     S
Ho1    O10     2.273   .     S
Ho1    O17     2.207   .     S
Ho1    O5      2.186   1_554 S
Ho1    O15     2.215   1_554 S
C2     O12     1.279   .     A
C2     O13     1.278   1_556 A
C2     C120    1.464   1_556 S
Ho3    O11     2.173   .     S
Ho3    O12     2.179   .     S
Ho3    O14     2.173   .     S
Ho3    O15     2.165   .     S
Ho3    O16     2.196   .     S
Ho3    O7      2.143   1_556 S
Ho3    O13     2.190   1_556 S
O5     C0      1.281   1_556 A
O5     Ho1     2.186   1_556 S
O6     C8      1.200   .     D
O7     C8      1.352   .     S
O7     Ho3     2.143   1_554 S
C8     C62     1.477   .     S
C9     O14     1.228   .     D
C9     O15     1.409   .     S
C9     C64     1.484   .     S
O10    C19     1.317   .     A
O11    C19     1.299   1_556 A
O13    C2      1.278   1_554 A
O13    Ho3     2.190   1_554 S
O15    Ho1     2.215   1_556 S
O16    C18     1.289   .     A
O17    C18     1.291   1_554 A
C18    O17     1.291   1_556 A
C18    C86     1.465   1_556 S
C19    O11     1.299   1_554 A
C19    C104    1.464   1_554 S
C20    O24     1.282   .     A
C20    C88     1.464   .     S
C20    O25     1.279   1_554 A
Ho21   O24     2.183   .     S
Ho21   O26     2.255   .     S
Ho21   O30     2.199   .     S
Ho21   O25     2.177   1_554 S
Ho21   O27     2.070   1_455 S
Ho21   O35     2.196   1_554 S
Ho21   O37     2.195   1_455 S
C22    O32     1.282   .     A
C22    C102    1.464   .     S
C22    O33     1.279   1_556 A
Ho23   O32     2.185   .     S
Ho23   O34     2.127   .     S
Ho23   O36     2.218   .     S
Ho23   O27     2.064   1_556 S
Ho23   O31     2.209   1_655 S
Ho23   O33     2.185   1_556 S
Ho23   O35     2.174   1_655 S
O25    C20     1.279   1_556 A
O25    Ho21    2.177   1_556 S
O26    C28     1.229   .     D
O27    Ho21    2.070   1_655 S
O27    Ho23    2.064   1_554 S
O27    C28     1.353   1_655 S
C28    O27     1.353   1_455 S
C28    C72     1.444   1_455 S
C29    O35     1.405   .     S
C29    O34     1.229   1_455 D
C29    C70     1.437   1_455 S
O30    C39     1.301   .     A
O31    Ho23    2.209   1_455 S
O31    C39     1.302   1_556 A
O33    C22     1.279   1_554 A
O33    Ho23    2.185   1_554 S
O34    C29     1.229   1_655 D
O35    Ho21    2.196   1_556 S
O35    Ho23    2.174   1_455 S
O36    C38     1.305   .     A
O37    Ho21    2.195   1_655 S
O37    C38     1.302   1_554 A
C38    O37     1.302   1_556 A
C38    C94     1.472   1_556 S
C39    O31     1.302   1_554 A
C39    C112    1.459   1_554 S
C40    O44     1.278   .     A
C40    O45     1.281   1_556 A
C40    C118    1.461   1_556 S
Ho41   O44     2.166   .     S
Ho41   O46     2.244   .     S
Ho41   O50     2.187   .     S
Ho41   O45     2.193   1_556 S
Ho41   O47     2.095   1_565 S
Ho41   O55     2.188   1_556 S
Ho41   O57     2.162   1_565 S
C42    O52     1.270   .     A
C42    O53     1.280   1_554 A
C42    C128    1.465   1_554 S
Ho43   O52     2.191   .     S
Ho43   O54     2.216   .     S
Ho43   O56     2.284   .     S
Ho43   O47     2.145   1_554 S
Ho43   O51     2.230   1_545 S
Ho43   O53     2.194   1_554 S
Ho43   O55     2.272   1_545 S
O45    C40     1.281   1_554 A
O45    Ho41    2.193   1_554 S
O46    C48     1.228   1_565 D
O47    C48     1.383   .     S
O47    Ho41    2.095   1_545 S
O47    Ho43    2.145   1_556 S
C48    C80     1.474   .     S
C48    O46     1.228   1_545 D
C49    O55     1.363   .     S
C49    O54     1.192   1_565 D
C49    C78     1.480   1_565 S
O50    C59     1.295   .     A
O51    Ho43    2.230   1_565 S
O51    C59     1.302   1_554 A
O53    C42     1.280   1_556 A
O53    Ho43    2.194   1_556 S
O54    C49     1.192   1_545 D
O55    Ho41    2.188   1_554 S
O55    Ho43    2.272   1_565 S
O56    C58     1.317   .     A
O57    Ho41    2.162   1_545 S
O57    C58     1.295   1_556 A
C58    C96     1.474   .     S
C58    O57     1.295   1_554 A
C59    O51     1.302   1_556 A
C59    C110    1.461   1_556 S
N60    N61     1.317   .     A
N60    C64     1.348   .     A
N60    H66     1.045   .     S
N61    C62     1.341   .     A
N61    H67     1.043   .     S
C62    C63     1.402   .     A
C63    C64     1.399   .     A
C63    H65     1.082   .     S
N68    N69     1.305   .     A
N68    C72     1.346   .     A
N68    H74     1.043   .     S
N69    C70     1.341   .     A
N69    H75     1.045   .     S
C70    C71     1.390   1_655 A
C70    C29     1.437   1_655 S
C71    H73     1.082   .     S
C71    C70     1.390   1_455 A
C71    C72     1.384   1_455 A
C72    C71     1.384   1_655 A
C72    C28     1.444   1_655 S
N76    N77     1.317   .     A
N76    H82     1.045   .     S
N76    C80     1.342   1_565 A
N77    H83     1.045   .     S
N77    C78     1.349   1_565 A
C78    C79     1.397   .     A
C78    N77     1.349   1_545 A
C78    C49     1.480   1_545 S
C79    C80     1.401   .     A
C79    H81     1.082   .     S
C80    N76     1.342   1_545 A
N84    C88     1.346   .     A
N84    N85     1.322   1_554 A
N84    H90     1.044   1_554 S
N85    H91     1.044   .     S
N85    N84     1.322   1_556 A
N85    C86     1.346   1_556 A
C86    C87     1.385   .     A
C86    N85     1.346   1_554 A
C86    C18     1.465   1_554 S
C87    C88     1.383   .     A
C87    H89     1.082   .     S
H90    N84     1.044   1_556 S
N92    N93     1.317   .     A
N92    C96     1.348   .     A
N92    H98     1.044   .     S
N93    C94     1.346   .     A
N93    H99     1.045   .     S
C94    C95     1.392   .     A
C94    C38     1.472   1_554 S
C95    C96     1.391   .     A
C95    H97     1.080   1_554 S
H97    C95     1.080   1_556 S
N100   N101    1.321   .     A
N100   C104    1.347   .     A
N100   H106    1.045   .     S
N101   C102    1.347   .     A
N101   H107    1.045   .     S
C102   C103    1.382   1_556 A
C103   H105    1.079   .     S
C103   C102    1.382   1_554 A
C103   C104    1.384   1_554 A
C104   C103    1.384   1_556 A
C104   C19     1.464   1_556 S
N108   N109    1.318   .     A
N108   C112    1.344   .     A
N108   H114    1.045   .     S
N109   C110    1.346   1_556 A
N109   H115    1.044   1_556 S
C110   N109    1.346   1_554 A
C110   C111    1.388   1_554 A
C110   C59     1.461   1_554 S
C111   C112    1.387   .     A
C111   H113    1.082   .     S
C111   C110    1.388   1_556 A
C112   C39     1.459   1_556 S
H115   N109    1.044   1_554 S
N116   N117    1.319   .     A
N116   C120    1.346   .     A
N116   H122    1.045   .     S
N117   C118    1.345   .     A
N117   H123    1.047   .     S
C118   C119    1.386   .     A
C118   C40     1.461   1_554 S
C119   C120    1.388   .     A
C119   H121    1.082   .     S
C120   C2      1.464   1_554 S
N124   N125    1.320   .     A
N124   C128    1.345   .     A
N124   H130    1.043   .     S
N125   C126    1.347   .     A
N125   H131    1.042   .     S
C126   C127    1.385   .     A
C126   C0      1.468   1_556 S
C127   C128    1.386   .     A
C127   H129    1.083   .     S
C128   C42     1.465   1_556 S
