data_kag+N205+E35
_audit_creation_date              2025-01-21
_audit_creation_method            'Materials Studio'
_symmetry_space_group_name_H-M    'P1'
_symmetry_Int_Tables_number       1
_symmetry_cell_setting            triclinic
loop_
_symmetry_equiv_pos_as_xyz
  x,y,z
_cell_length_a                    35.3283
_cell_length_b                    35.3379
_cell_length_c                    14.6992
_cell_angle_alpha                 91.7713
_cell_angle_beta                  92.7115
_cell_angle_gamma                 119.9337
loop_
_atom_site_label
_atom_site_type_symbol
_atom_site_fract_x
_atom_site_fract_y
_atom_site_fract_z
_atom_site_U_iso_or_equiv
_atom_site_adp_type
_atom_site_occupancy
Y0     Y     0.55474   0.49954  -0.00148   0.00000  Uiso   1.00
Y1     Y     0.44900   0.50848   0.99592   0.00000  Uiso   1.00
C2     C     0.49577   0.59690  -0.00588   0.00000  Uiso   1.00
C3     C     0.50298   0.50182   0.15746   0.00000  Uiso   1.00
C4     C     0.64150   0.52859   1.02211   0.00000  Uiso   1.00
C5     C     0.51108   0.41141   0.96838   0.00000  Uiso   1.00
C6     C     0.50021   0.50352   0.83821   0.00000  Uiso   1.00
C7     C     0.36330   0.48303   0.00633   0.00000  Uiso   1.00
O8     O     0.47388   0.57179   0.92583   0.00000  Uiso   1.00
O9     O     0.49505   0.57620   0.06278   0.00000  Uiso   1.00
O10    O     0.53733   0.52684   0.11841   0.00000  Uiso   1.00
O11    O     0.46709   0.47821   0.10999   0.00000  Uiso   1.00
O12    O     0.62272   0.52951   0.94786   0.00000  Uiso   1.00
O13    O     0.61577   0.51476   0.08497   0.00000  Uiso   1.00
O14    O     0.51333   0.43074   0.04357   0.00000  Uiso   1.00
O15    O     0.52959   0.43768   0.90785   0.00000  Uiso   1.00
O16    O     0.46409   0.48021   0.87353   0.00000  Uiso   1.00
O17    O     0.53423   0.52940   0.88894   0.00000  Uiso   1.00
O18    O     0.39078   0.49616   0.07416   0.00000  Uiso   1.00
O19    O     0.37973   0.48109   0.93339   0.00000  Uiso   1.00
Y20    Y     0.05630   0.55605   0.00692   0.00000  Uiso   1.00
Y21    Y     0.94258   0.44820   1.00334   0.00000  Uiso   1.00
C22    C     0.89826   0.49228   1.01699   0.00000  Uiso   1.00
C23    C     0.00297   0.50566   0.16405   0.00000  Uiso   1.00
C24    C     0.11512   0.64262   1.00875   0.00000  Uiso   1.00
C25    C     0.09998   0.51118   0.00533   0.00000  Uiso   1.00
C26    C    -0.00648   0.50070   0.84510   0.00000  Uiso   1.00
C27    C     0.88540   0.36100  -0.00189   0.00000  Uiso   1.00
O28    O     0.90735   0.48143   0.94240   0.00000  Uiso   1.00
O29    O     0.91349   0.48178   0.08429   0.00000  Uiso   1.00
O30    O     0.01353   0.54054   0.12381   0.00000  Uiso   1.00
O31    O     0.99501   0.47112   0.11790   0.00000  Uiso   1.00
O32    O     0.09595   0.61885   0.93713   0.00000  Uiso   1.00
O33    O     0.10195   0.62213   0.07971   0.00000  Uiso   1.00
O34    O     0.08838   0.52200   0.07648   0.00000  Uiso   1.00
O35    O     0.08680   0.52138   0.93421   0.00000  Uiso   1.00
O36    O     0.98343   0.46517   0.88226   0.00000  Uiso   1.00
O37    O     0.00339   0.53490   0.89459   0.00000  Uiso   1.00
O38    O     0.90538   0.38388   0.07027   0.00000  Uiso   1.00
O39    O     0.89678   0.38282   0.92850   0.00000  Uiso   1.00
Y40    Y     0.50609   0.05952  -0.01610   0.00000  Uiso   1.00
Y41    Y     0.49820   0.94482   0.99355   0.00000  Uiso   1.00
C42    C     0.40973   0.89897   0.99586   0.00000  Uiso   1.00
C43    C     0.50134   0.00637   0.14793   0.00000  Uiso   1.00
C44    C     0.48031   0.11946   0.96652   0.00000  Uiso   1.00
C45    C     0.59467   0.10051  -0.00854   0.00000  Uiso   1.00
C46    C     0.49696  -0.00374   0.82942   0.00000  Uiso   1.00
C47    C     0.52938   0.88866  -0.00200   0.00000  Uiso   1.00
O48    O     0.42959   0.91047   0.92412   0.00000  Uiso   1.00
O49    O     0.43556   0.91278   0.06635   0.00000  Uiso   1.00
O50    O     0.47778   0.01761   0.10121   0.00000  Uiso   1.00
O51    O     0.52720   0.99704   0.10840   0.00000  Uiso   1.00
O52    O     0.48431   0.09876   0.89998   0.00000  Uiso   1.00
O53    O     0.48753   0.10751   0.04205   0.00000  Uiso   1.00
O54    O     0.57292   0.09283   0.06071   0.00000  Uiso   1.00
O55    O     0.57052   0.08483   0.91875   0.00000  Uiso   1.00
O56    O     0.52178   0.98507   0.87145   0.00000  Uiso   1.00
O57    O     0.47267   0.00579   0.87411   0.00000  Uiso   1.00
O58    O     0.52715   0.90880   0.06779   0.00000  Uiso   1.00
O59    O     0.51762   0.89934   0.92579   0.00000  Uiso   1.00
C60    C     0.50831   0.50025   0.44848   0.00000  Uiso   1.00
C61    C     0.54548   0.52988   0.40512   0.00000  Uiso   1.00
C62    C     0.54371   0.52996   0.31032   0.00000  Uiso   1.00
C63    C     0.50498   0.50096   0.25797   0.00000  Uiso   1.00
C64    C     0.46847   0.47192   0.30359   0.00000  Uiso   1.00
N65    N     0.47098   0.47240   0.39626   0.00000  Uiso   1.00
C66    C     0.50774   0.49973   0.54922   0.00000  Uiso   1.00
N67    N     0.46840   0.48072   0.58705   0.00000  Uiso   1.00
C68    C     0.46508   0.48053   0.67883   0.00000  Uiso   1.00
C69    C     0.50295   0.50086   0.73855   0.00000  Uiso   1.00
C70    C     0.54381   0.51956   0.70132   0.00000  Uiso   1.00
C71    C     0.54638   0.51878   0.60707   0.00000  Uiso   1.00
H72    H     0.57257   0.55323   0.27810   0.00000  Uiso   1.00
H73    H     0.43791   0.44899   0.26586   0.00000  Uiso   1.00
H74    H     0.43291   0.46539   0.70484   0.00000  Uiso   1.00
H75    H     0.57385   0.53480   0.74507   0.00000  Uiso   1.00
H76    H     0.57545   0.55368   0.44316   0.00000  Uiso   1.00
H77    H     0.57838   0.53282   0.58078   0.00000  Uiso   1.00
C78    C    -0.00569   0.50601   0.55446   0.00000  Uiso   1.00
C79    C     1.00599   0.54398   0.60971   0.00000  Uiso   1.00
C80    C     1.00554   0.54205   0.70422   0.00000  Uiso   1.00
C81    C    -0.00614   0.50261   0.74463   0.00000  Uiso   1.00
C82    C    -0.01720   0.46547   0.68740   0.00000  Uiso   1.00
N83    N    -0.01661   0.46811   0.59523   0.00000  Uiso   1.00
C84    C    -0.00505   0.50629   0.45349   0.00000  Uiso   1.00
N85    N    -0.00375   0.47318   0.40630   0.00000  Uiso   1.00
C86    C    -0.00196   0.47176   0.31403   0.00000  Uiso   1.00
C87    C    -0.00090   0.50535   0.26375   0.00000  Uiso   1.00
C88    C     0.99680   0.53923   0.31055   0.00000  Uiso   1.00
C89    C     0.99435   0.53966   0.40488   0.00000  Uiso   1.00
H90    H     1.01461   0.57161   0.74567   0.00000  Uiso   1.00
H91    H    -0.02628   0.43439   0.71571   0.00000  Uiso   1.00
H92    H    -0.00049   0.44488   0.28040   0.00000  Uiso   1.00
H93    H     0.99663   0.56534   0.27416   0.00000  Uiso   1.00
H94    H     1.01628   0.57524   0.58145   0.00000  Uiso   1.00
H95    H     0.99159   0.56575   0.43826   0.00000  Uiso   1.00
C96    C     0.49512   0.00313   0.43805   0.00000  Uiso   1.00
C97    C     0.46489   0.00947   0.38467   0.00000  Uiso   1.00
C98    C     0.46695   0.01040   0.29022   0.00000  Uiso   1.00
C99    C     0.49861   0.00452   0.24807   0.00000  Uiso   1.00
C100   C     0.52755   0.99721   0.30339   0.00000  Uiso   1.00
N101   N     0.52514   0.99679   0.39551   0.00000  Uiso   1.00
C102   C     0.49499   0.00235   0.53900   0.00000  Uiso   1.00
N103   N     0.51661   0.98473   0.58379   0.00000  Uiso   1.00
C104   C     0.51804   0.98272   0.67607   0.00000  Uiso   1.00
C105   C     0.49668  -0.00103   0.72918   0.00000  Uiso   1.00
C106   C     0.47469   0.01779   0.68475   0.00000  Uiso   1.00
C107   C     0.47399   0.01983   0.59016   0.00000  Uiso   1.00
H108   H     0.44358   0.01559   0.25017   0.00000  Uiso   1.00
H109   H     0.55233   0.99227   0.27373   0.00000  Uiso   1.00
H110   H     0.53550   0.96806   0.70761   0.00000  Uiso   1.00
H111   H     0.45822   0.03123   0.72317   0.00000  Uiso   1.00
H112   H     0.43942   0.01314   0.41438   0.00000  Uiso   1.00
H113   H     0.45767   0.03557   0.55864   0.00000  Uiso   1.00
C114   C     0.23637   0.46871   0.01696   0.00000  Uiso   1.00
C115   C     0.26221   0.47578   0.09847   0.00000  Uiso   1.00
C116   C     0.30279   0.47829   0.09524   0.00000  Uiso   1.00
C117   C     0.31789   0.47388   0.01137   0.00000  Uiso   1.00
C118   C     0.29052   0.46506  -0.06808   0.00000  Uiso   1.00
N119   N     0.25131   0.46331  -0.06346   0.00000  Uiso   1.00
C120   C     0.19614   0.47218   0.01445   0.00000  Uiso   1.00
N121   N     0.18192   0.48076  -0.06591   0.00000  Uiso   1.00
C122   C     0.14881   0.48991  -0.07203   0.00000  Uiso   1.00
C123   C     0.12883   0.49213   0.00653   0.00000  Uiso   1.00
C124   C     0.14106   0.48094   0.08898   0.00000  Uiso   1.00
C125   C     0.17432   0.47051   0.09315   0.00000  Uiso   1.00
H126   H     0.32311   0.48541   0.15806   0.00000  Uiso   1.00
H127   H     0.30108   0.46155  -0.13417   0.00000  Uiso   1.00
H128   H     0.13991   0.49786   0.86283   0.00000  Uiso   1.00
H129   H     0.12600   0.48179   0.15094   0.00000  Uiso   1.00
H130   H     0.25275   0.48167   0.16386   0.00000  Uiso   1.00
H131   H     0.18323   0.46242   0.15797   0.00000  Uiso   1.00
C132   C     0.77465   0.23268  -0.00585   0.00000  Uiso   1.00
C133   C     0.79033   0.25142  -0.08866   0.00000  Uiso   1.00
C134   C     0.82801   0.29248  -0.08758   0.00000  Uiso   1.00
C135   C     0.85034   0.31475  -0.00449   0.00000  Uiso   1.00
C136   C     0.83532   0.29377   0.07640   0.00000  Uiso   1.00
N137   N     0.79801   0.25413   0.07380   0.00000  Uiso   1.00
C138   C     0.73078   0.19301  -0.00402   0.00000  Uiso   1.00
N139   N     0.70669   0.17289  -0.08378   0.00000  Uiso   1.00
C140   C     0.66405   0.14063  -0.08647   0.00000  Uiso   1.00
C141   C     0.64277   0.12796  -0.00546   0.00000  Uiso   1.00
C142   C     0.66742   0.14644   0.07778   0.00000  Uiso   1.00
C143   C     0.71150   0.17879   0.07888   0.00000  Uiso   1.00
H144   H     0.83851   0.30763  -0.15149   0.00000  Uiso   1.00
H145   H     0.85182   0.30980   0.14188   0.00000  Uiso   1.00
H146   H     0.64623   0.12684  -0.15207   0.00000  Uiso   1.00
H147   H     0.65217   0.13741   0.14183   0.00000  Uiso   1.00
H148   H     0.77257   0.23566  -0.15339   0.00000  Uiso   1.00
H149   H     0.72949   0.19400   0.14372   0.00000  Uiso   1.00
C150   C     0.80746   0.53742   1.03963   0.00000  Uiso   1.00
C151   C     0.83110   0.53664   1.11862   0.00000  Uiso   1.00
C152   C     0.86238   0.52381   0.11092   0.00000  Uiso   1.00
C153   C     0.87072   0.51253   1.02495   0.00000  Uiso   1.00
C154   C     0.84902   0.51704   0.94743   0.00000  Uiso   1.00
N155   N     0.81797   0.52860   0.95667   0.00000  Uiso   1.00
C156   C     0.76874   0.54322   1.04297   0.00000  Uiso   1.00
N157   N     0.75186   0.54986   0.96376   0.00000  Uiso   1.00
C158   C     0.71283   0.54879   0.95722   0.00000  Uiso   1.00
C159   C     0.68750   0.53907   1.03276   0.00000  Uiso   1.00
C160   C     0.70492   0.53406   1.11615   0.00000  Uiso   1.00
C161   C     0.74548   0.53617   1.12173   0.00000  Uiso   1.00
H162   H     0.87897   0.52131   0.17236   0.00000  Uiso   1.00
H163   H     0.85502   0.50922   0.87979   0.00000  Uiso   1.00
H164   H     0.70057   0.55306   0.89175   0.00000  Uiso   1.00
H165   H     0.68624   0.52632   0.17598   0.00000  Uiso   1.00
H166   H     0.82501   0.54462   0.18589   0.00000  Uiso   1.00
H167   H     0.75669   0.52959   0.18576   0.00000  Uiso   1.00
C168   C     0.27379   0.80652   1.00193   0.00000  Uiso   1.00
C169   C     0.29128   0.82131   0.91778   0.00000  Uiso   1.00
C170   C     0.33537   0.85316   0.91576   0.00000  Uiso   1.00
C171   C     0.36193   0.87040   0.99726   0.00000  Uiso   1.00
C172   C     0.34270   0.85660   1.08009   0.00000  Uiso   1.00
N173   N     0.29990   0.82509   1.08028   0.00000  Uiso   1.00
C174   C     0.22925   0.76816   1.00605   0.00000  Uiso   1.00
N175   N     0.20509   0.74622   0.92742   0.00000  Uiso   1.00
C176   C     0.16679   0.70762   0.92700   0.00000  Uiso   1.00
C177   C     0.15139   0.68824   1.00920   0.00000  Uiso   1.00
C178   C     0.17454   0.71114   1.09121   0.00000  Uiso   1.00
C179   C     0.21335   0.75115   1.09000   0.00000  Uiso   1.00
H180   H     0.34905   0.86307   0.85046   0.00000  Uiso   1.00
H181   H     0.36205   0.86936   1.14452   0.00000  Uiso   1.00
H182   H     0.14969   0.69105   0.86229   0.00000  Uiso   1.00
H183   H     0.16376   0.69721   1.15604   0.00000  Uiso   1.00
H184   H     0.27167   0.80726   0.85399   0.00000  Uiso   1.00
H185   H     0.23167   0.76751   1.15393   0.00000  Uiso   1.00
C186   C     0.54733   0.77821   0.00434   0.00000  Uiso   1.00
C187   C     0.55233   0.80244   0.08635   0.00000  Uiso   1.00
C188   C     0.54919   0.84028   0.08403   0.00000  Uiso   1.00
C189   C     0.54115   0.85408   0.00064   0.00000  Uiso   1.00
C190   C     0.53919   0.83071  -0.07988   0.00000  Uiso   1.00
N191   N     0.54160   0.79361  -0.07593   0.00000  Uiso   1.00
C192   C     0.54181   0.73367   0.00199   0.00000  Uiso   1.00
N193   N     0.52376   0.70782  -0.07645   0.00000  Uiso   1.00
C194   C     0.51186   0.66483  -0.08226   0.00000  Uiso   1.00
C195   C     0.51673   0.64496  -0.00504   0.00000  Uiso   1.00
C196   C     0.53757   0.67126   0.07522   0.00000  Uiso   1.00
C197   C     0.55046   0.71570   0.07896   0.00000  Uiso   1.00
H198   H     0.55082   0.85745   0.14771   0.00000  Uiso   1.00
H199   H     0.53326   0.84044  -0.14569   0.00000  Uiso   1.00
H200   H     0.49647   0.64579   0.85408   0.00000  Uiso   1.00
H201   H     0.54238   0.65716   0.13599   0.00000  Uiso   1.00
H202   H     0.55607   0.79145   0.15213   0.00000  Uiso   1.00
H203   H     0.56584   0.73498   0.14217   0.00000  Uiso   1.00
C204   C     0.47124   0.27612   0.94066   0.00000  Uiso   1.00
C205   C     0.48421   0.30127   0.86377   0.00000  Uiso   1.00
C206   C     0.49465   0.34496   0.87121   0.00000  Uiso   1.00
C207   C     0.49225   0.36368   0.95470   0.00000  Uiso   1.00
C208   C     0.47669   0.33690   1.02813   0.00000  Uiso   1.00
N209   N     0.46740   0.29467   1.01974   0.00000  Uiso   1.00
C210   C     0.46711   0.23226   0.94271   0.00000  Uiso   1.00
N211   N     0.46984   0.21720   1.02556   0.00000  Uiso   1.00
C212   C     0.47138   0.17985   1.03466   0.00000  Uiso   1.00
C213   C     0.47114   0.15560   0.95720   0.00000  Uiso   1.00
C214   C     0.46624   0.16914   0.87095   0.00000  Uiso   1.00
C215   C     0.46394   0.20727   0.86329   0.00000  Uiso   1.00
H216   H     0.50659   0.36459   0.81285   0.00000  Uiso   1.00
H217   H     0.47409   0.35001   1.09359   0.00000  Uiso   1.00
H218   H     0.47482   0.17029   1.10244   0.00000  Uiso   1.00
H219   H     0.46558   0.15106   0.80945   0.00000  Uiso   1.00
H220   H     0.48881   0.28862   0.79994   0.00000  Uiso   1.00
H221   H     0.46063   0.21712   0.79591   0.00000  Uiso   1.00
loop_
_geom_bond_atom_site_label_1
_geom_bond_atom_site_label_2
_geom_bond_distance
_geom_bond_site_symmetry_2
_ccdc_geom_bond_type
Y0     O10     2.237   .     S
Y0     O13     2.257   .     S
Y0     O14     2.265   .     S
Y0     O12     2.263   1_554 S
Y0     O15     2.261   1_554 S
Y0     O17     2.234   1_554 S
Y1     O8      2.260   .     S
Y1     O16     2.243   .     S
Y1     O19     2.267   .     S
Y1     O9      2.271   1_556 S
Y1     O11     2.248   1_556 S
Y1     O18     2.259   1_556 S
C2     O9      1.259   .     A
C2     C195    1.475   .     S
C2     O8      1.257   1_554 A
C3     O10     1.269   .     A
C3     O11     1.271   .     A
C3     C63     1.478   .     S
C4     O12     1.260   .     A
C4     C159    1.474   .     S
C4     O13     1.258   1_556 A
C5     O15     1.258   .     A
C5     C207    1.475   .     S
C5     O14     1.259   1_556 A
C6     O16     1.272   .     A
C6     O17     1.270   .     A
C6     C69     1.476   .     S
C7     O18     1.258   .     A
C7     C117    1.476   .     S
C7     O19     1.259   1_554 A
O8     C2      1.257   1_556 A
O9     Y1      2.271   1_554 S
O11    Y1      2.248   1_554 S
O12    Y0      2.263   1_556 S
O13    C4      1.258   1_554 A
O14    C5      1.259   1_554 A
O15    Y0      2.261   1_556 S
O17    Y0      2.234   1_556 S
O18    Y1      2.259   1_554 S
O19    C7      1.259   1_556 A
Y20    O30     2.239   .     S
Y20    O33     2.263   .     S
Y20    O34     2.260   .     S
Y20    O32     2.261   1_554 S
Y20    O35     2.269   1_554 S
Y20    O37     2.240   1_554 S
Y21    O28     2.269   .     S
Y21    O36     2.249   .     S
Y21    O39     2.260   .     S
Y21    O29     2.264   1_556 S
Y21    O31     2.246   1_556 S
Y21    O38     2.267   1_556 S
C22    O28     1.258   .     A
C22    C153    1.474   .     S
C22    O29     1.256   1_556 A
C23    O30     1.271   .     A
C23    C87     1.478   .     S
C23    O31     1.272   1_455 A
C24    O32     1.258   .     A
C24    C177    1.476   .     S
C24    O33     1.259   1_556 A
C25    O34     1.257   .     A
C25    C123    1.475   .     S
C25    O35     1.259   1_554 A
C26    O37     1.270   .     A
C26    C81     1.481   .     S
C26    O36     1.271   1_455 A
C27    O38     1.258   .     A
C27    C135    1.476   .     S
C27    O39     1.258   1_554 A
O29    Y21     2.264   1_554 S
O29    C22     1.256   1_554 A
O31    Y21     2.246   1_554 S
O31    C23     1.272   1_655 A
O32    Y20     2.261   1_556 S
O33    C24     1.259   1_554 A
O35    Y20     2.269   1_556 S
O35    C25     1.259   1_556 A
O36    C26     1.271   1_655 A
O37    Y20     2.240   1_556 S
O38    Y21     2.267   1_554 S
O39    C27     1.258   1_556 A
Y40    O50     2.238   .     S
Y40    O53     2.261   .     S
Y40    O54     2.264   .     S
Y40    O52     2.262   1_554 S
Y40    O55     2.264   1_554 S
Y40    O57     2.235   1_554 S
Y41    O48     2.268   .     S
Y41    O56     2.248   .     S
Y41    O59     2.261   .     S
Y41    O49     2.263   1_556 S
Y41    O51     2.250   1_556 S
Y41    O58     2.266   1_556 S
C42    O48     1.258   .     A
C42    C171    1.474   .     S
C42    O49     1.257   1_556 A
C43    O50     1.271   .     A
C43    C99     1.481   .     S
C43    O51     1.273   1_545 A
C44    O52     1.258   .     A
C44    C213    1.475   .     S
C44    O53     1.259   1_556 A
C45    O54     1.258   .     A
C45    C141    1.475   .     S
C45    O55     1.258   1_554 A
C46    O57     1.269   .     A
C46    C105    1.479   .     S
C46    O56     1.271   1_545 A
C47    O58     1.258   .     A
C47    C189    1.475   .     S
C47    O59     1.257   1_554 A
O49    Y41     2.263   1_554 S
O49    C42     1.257   1_554 A
O51    Y41     2.250   1_554 S
O51    C43     1.273   1_565 A
O52    Y40     2.262   1_556 S
O53    C44     1.259   1_554 A
O55    Y40     2.264   1_556 S
O55    C45     1.258   1_556 A
O56    C46     1.271   1_565 A
O57    Y40     2.235   1_556 S
O58    Y41     2.266   1_554 S
O59    C47     1.257   1_556 A
C60    C61     1.406   .     A
C60    N65     1.363   .     A
C60    C66     1.482   .     S
C61    C62     1.392   .     A
C61    H76     1.080   .     S
C62    C63     1.403   .     A
C62    H72     1.083   .     S
C63    C64     1.404   .     A
C64    N65     1.360   .     A
C64    H73     1.083   .     S
C66    N67     1.362   .     A
C66    C71     1.406   .     A
N67    C68     1.360   .     A
C68    C69     1.403   .     A
C68    H74     1.082   .     S
C69    C70     1.402   .     A
C70    C71     1.393   .     A
C70    H75     1.083   .     S
C71    H77     1.080   .     S
C78    N83     1.363   .     A
C78    C84     1.486   .     S
C78    C79     1.407   1_455 A
C79    C80     1.393   .     A
C79    H94     1.080   .     S
C79    C78     1.407   1_655 A
C80    H90     1.083   .     S
C80    C81     1.402   1_655 A
C81    C82     1.404   .     A
C81    C80     1.402   1_455 A
C82    N83     1.361   .     A
C82    H91     1.082   .     S
C84    N85     1.363   .     A
C84    C89     1.406   1_455 A
N85    C86     1.361   .     A
C86    C87     1.403   .     A
C86    H92     1.082   .     S
C87    C88     1.402   1_455 A
C88    C89     1.393   .     A
C88    H93     1.083   .     S
C88    C87     1.402   1_655 A
C89    H95     1.080   .     S
C89    C84     1.406   1_655 A
C96    C97     1.406   .     A
C96    C102    1.485   .     S
C96    N101    1.363   1_545 A
C97    C98     1.394   .     A
C97    H112    1.080   .     S
C98    C99     1.403   .     A
C98    H108    1.083   .     S
C99    C100    1.404   1_545 A
C100   N101    1.361   .     A
C100   H109    1.082   .     S
C100   C99     1.404   1_565 A
N101   C96     1.363   1_565 A
C102   C107    1.407   .     A
C102   N103    1.363   1_545 A
N103   C104    1.360   .     A
N103   C102    1.363   1_565 A
C104   H110    1.082   .     S
C104   C105    1.403   1_565 A
C105   C106    1.403   .     A
C105   C104    1.403   1_545 A
C106   C107    1.394   .     A
C106   H111    1.083   .     S
C107   H113    1.080   .     S
C114   C115    1.408   .     A
C114   N119    1.363   .     A
C114   C120    1.485   .     S
C115   C116    1.395   .     A
C115   H130    1.080   .     S
C116   C117    1.401   .     A
C116   H126    1.083   .     S
C117   C118    1.402   .     A
C118   N119    1.360   .     A
C118   H127    1.082   .     S
C120   N121    1.363   .     A
C120   C125    1.407   .     A
N121   C122    1.360   .     A
C122   C123    1.402   .     A
C122   H128    1.082   1_554 S
C123   C124    1.401   .     A
C124   C125    1.395   .     A
C124   H129    1.083   .     S
C125   H131    1.080   .     S
H128   C122    1.082   1_556 S
C132   C133    1.405   .     A
C132   N137    1.362   .     A
C132   C138    1.485   .     S
C133   C134    1.395   .     A
C133   H148    1.082   .     S
C134   C135    1.401   .     A
C134   H144    1.083   .     S
C135   C136    1.402   .     A
C136   N137    1.360   .     A
C136   H145    1.082   .     S
C138   N139    1.362   .     A
C138   C143    1.406   .     A
N139   C140    1.359   .     A
C140   C141    1.402   .     A
C140   H146    1.082   .     S
C141   C142    1.402   .     A
C142   C143    1.397   .     A
C142   H147    1.083   .     S
C143   H149    1.082   .     S
C150   C151    1.407   .     A
C150   N155    1.363   .     A
C150   C156    1.484   .     S
C151   C152    1.396   1_556 A
C151   H166    1.080   1_556 S
C152   H162    1.083   .     S
C152   C151    1.396   1_554 A
C152   C153    1.401   1_554 A
C153   C154    1.401   .     A
C153   C152    1.401   1_556 A
C154   N155    1.359   .     A
C154   H163    1.082   .     S
C156   N157    1.363   .     A
C156   C161    1.407   .     A
N157   C158    1.359   .     A
C158   C159    1.401   .     A
C158   H164    1.082   .     S
C159   C160    1.401   .     A
C160   C161    1.395   .     A
C160   H165    1.083   1_556 S
C161   H167    1.080   1_556 S
H165   C160    1.083   1_554 S
H166   C151    1.080   1_554 S
H167   C161    1.080   1_554 S
C168   C169    1.405   .     A
C168   N173    1.363   .     A
C168   C174    1.484   .     S
C169   C170    1.397   .     A
C169   H184    1.083   .     S
C170   C171    1.402   .     A
C170   H180    1.083   .     S
C171   C172    1.402   .     A
C172   N173    1.359   .     A
C172   H181    1.083   .     S
C174   N175    1.362   .     A
C174   C179    1.405   .     A
N175   C176    1.360   .     A
C176   C177    1.402   .     A
C176   H182    1.082   .     S
C177   C178    1.401   .     A
C178   C179    1.396   .     A
C178   H183    1.083   .     S
C179   H185    1.082   .     S
C186   C187    1.408   .     A
C186   N191    1.362   .     A
C186   C192    1.485   .     S
C187   C188    1.397   .     A
C187   H202    1.080   .     S
C188   C189    1.401   .     A
C188   H198    1.083   .     S
C189   C190    1.401   .     A
C190   N191    1.358   .     A
C190   H199    1.082   .     S
C192   N193    1.362   .     A
C192   C197    1.408   .     A
N193   C194    1.358   .     A
C194   C195    1.401   .     A
C194   H200    1.083   1_554 S
C195   C196    1.402   .     A
C196   C197    1.398   .     A
C196   H201    1.083   .     S
C197   H203    1.080   .     S
H200   C194    1.083   1_556 S
C204   C205    1.408   .     A
C204   N209    1.362   .     A
C204   C210    1.484   .     S
C205   C206    1.396   .     A
C205   H220    1.081   .     S
C206   C207    1.402   .     A
C206   H216    1.083   .     S
C207   C208    1.401   .     A
C208   N209    1.359   .     A
C208   H217    1.083   .     S
C210   N211    1.362   .     A
C210   C215    1.407   .     A
N211   C212    1.358   .     A
C212   C213    1.401   .     A
C212   H218    1.083   .     S
C213   C214    1.402   .     A
C214   C215    1.397   .     A
C214   H219    1.083   .     S
C215   H221    1.080   .     S
