data_kag+N394+E28
_audit_creation_date              2025-01-21
_audit_creation_method            'Materials Studio'
_symmetry_space_group_name_H-M    'P1'
_symmetry_Int_Tables_number       1
_symmetry_cell_setting            triclinic
loop_
_symmetry_equiv_pos_as_xyz
  x,y,z
_cell_length_a                    39.8507
_cell_length_b                    41.8678
_cell_length_c                    18.6138
_cell_angle_alpha                 95.8309
_cell_angle_beta                  95.5719
_cell_angle_gamma                 114.5616
loop_
_atom_site_label
_atom_site_type_symbol
_atom_site_fract_x
_atom_site_fract_y
_atom_site_fract_z
_atom_site_U_iso_or_equiv
_atom_site_adp_type
_atom_site_occupancy
Pr0    Pr    0.51895   0.54211  -0.01969   0.00000  Uiso   1.00
Pr1    Pr    0.49277   0.46178   1.00734   0.00000  Uiso   1.00
O2     O     0.43854   0.46828   1.01910   0.00000  Uiso   1.00
O3     O     0.45791   0.52675   0.00135   0.00000  Uiso   1.00
O4     O     0.51855   0.58490   0.91453   0.00000  Uiso   1.00
O5     O     0.54898   0.60113   0.02374   0.00000  Uiso   1.00
O6     O     0.52851   0.51519   0.07432   0.00000  Uiso   1.00
O7     O     0.49912   0.54652   0.09294   0.00000  Uiso   1.00
C8     C     0.50171   0.47635   0.86707   0.00000  Uiso   1.00
C9     C     0.43273   0.49645   0.01352   0.00000  Uiso   1.00
C10    C     0.53827   0.61056   0.96598   0.00000  Uiso   1.00
C11    C     0.47500   0.39397   0.02447   0.00000  Uiso   1.00
C12    C     0.57926   0.50767   0.97695   0.00000  Uiso   1.00
C13    C     0.51090   0.52779   0.12111   0.00000  Uiso   1.00
O14    O     0.57337   0.53564  -0.03064   0.00000  Uiso   1.00
O15    O     0.55390   0.47742   0.98860   0.00000  Uiso   1.00
O16    O     0.49437   0.42026   0.07491   0.00000  Uiso   1.00
O17    O     0.46345   0.40234   0.96598   0.00000  Uiso   1.00
O18    O     0.48352   0.48865   0.91308   0.00000  Uiso   1.00
O19    O     0.51362   0.45779   0.89568   0.00000  Uiso   1.00
Pr20   Pr    0.98368   0.45790   1.00972   0.00000  Uiso   1.00
Pr21   Pr    0.02754   0.53980  -0.00722   0.00000  Uiso   1.00
O22    O     0.96616   0.53247  -0.03064   0.00000  Uiso   1.00
O23    O     0.93516   0.47321   0.98044   0.00000  Uiso   1.00
O24    O     0.94726   0.41373   0.06718   0.00000  Uiso   1.00
O25    O     0.95968   0.39934   0.96214   0.00000  Uiso   1.00
O26    O     0.01462   0.48766   0.92479   0.00000  Uiso   1.00
O27    O     0.95680   0.45609   0.89141   0.00000  Uiso   1.00
C28    C     0.02610   0.52220   0.13207   0.00000  Uiso   1.00
C29    C     0.93579   0.50383   0.97024   0.00000  Uiso   1.00
C30    C     0.94204   0.38893   0.01533   0.00000  Uiso   1.00
C31    C     0.06863   0.60879   0.98659   0.00000  Uiso   1.00
C32    C     0.07549   0.49415   0.03401   0.00000  Uiso   1.00
C33    C    -0.01529   0.47582   0.87080   0.00000  Uiso   1.00
O34    O     0.04499   0.46536   1.03310   0.00000  Uiso   1.00
O35    O     0.07632   0.52482   0.02353   0.00000  Uiso   1.00
O36    O     0.06357   0.58396   0.93491   0.00000  Uiso   1.00
O37    O     0.05124   0.59835   0.04006   0.00000  Uiso   1.00
O38    O     0.99639   0.51006   0.07757   0.00000  Uiso   1.00
O39    O     0.05406   0.54194   0.11165   0.00000  Uiso   1.00
Pr40   Pr    0.54530   0.02593  -0.00938   0.00000  Uiso   1.00
Pr41   Pr    0.46073   0.97498   1.00539   0.00000  Uiso   1.00
O42    O     0.45997   0.03030   0.02436   0.00000  Uiso   1.00
O43    O     0.52175   0.06696   0.01983   0.00000  Uiso   1.00
O44    O     0.58960   0.06457   0.93450   0.00000  Uiso   1.00
O45    O     0.60655   0.05482   0.04014   0.00000  Uiso   1.00
O46    O     0.51653   0.99431   0.07547   0.00000  Uiso   1.00
O47    O     0.54308   0.05013   0.10753   0.00000  Uiso   1.00
C48    C     0.48083   0.97930   0.86708   0.00000  Uiso   1.00
C49    C     0.48761   0.06150   0.02708   0.00000  Uiso   1.00
C50    C     0.61613   0.07195   0.98692   0.00000  Uiso   1.00
C51    C     0.38995   0.92920   0.01082   0.00000  Uiso   1.00
C52    C     0.51871   0.93956   0.97085   0.00000  Uiso   1.00
C53    C     0.52528   0.02259   0.12861   0.00000  Uiso   1.00
O54    O     0.54568   0.97048   0.96786   0.00000  Uiso   1.00
O55    O     0.48501   0.93426   0.98127   0.00000  Uiso   1.00
O56    O     0.41661   0.93714   0.06323   0.00000  Uiso   1.00
O57    O     0.39937   0.94558   0.95657   0.00000  Uiso   1.00
O58    O     0.48967   0.00717   0.92105   0.00000  Uiso   1.00
O59    O     0.46257   0.95169   0.88719   0.00000  Uiso   1.00
C60    C     0.50494   0.50937   0.34355   0.00000  Uiso   1.00
C61    C     0.48767   0.52926   0.31336   0.00000  Uiso   1.00
C62    C     0.48906   0.53478   0.24066   0.00000  Uiso   1.00
C63    C     0.50777   0.52056   0.19667   0.00000  Uiso   1.00
C64    C     0.52444   0.50015   0.22607   0.00000  Uiso   1.00
C65    C     0.52310   0.49465   0.29881   0.00000  Uiso   1.00
C66    C     0.50472   0.50465   0.42152   0.00000  Uiso   1.00
N67    N     0.52176   0.48581   0.45105   0.00000  Uiso   1.00
N68    N     0.52241   0.48235   0.52146   0.00000  Uiso   1.00
C69    C     0.50614   0.49765   0.56554   0.00000  Uiso   1.00
N70    N     0.48892   0.51634   0.53592   0.00000  Uiso   1.00
N71    N     0.48826   0.51979   0.46551   0.00000  Uiso   1.00
C72    C     0.50674   0.49367   0.64395   0.00000  Uiso   1.00
C73    C     0.48937   0.50912   0.68914   0.00000  Uiso   1.00
C74    C     0.48858   0.50413   0.76220   0.00000  Uiso   1.00
C75    C     0.50506   0.48358   0.79158   0.00000  Uiso   1.00
C76    C     0.52320   0.46880   0.74726   0.00000  Uiso   1.00
C77    C     0.52402   0.47377   0.67415   0.00000  Uiso   1.00
H78    H     0.47334   0.54090   0.34604   0.00000  Uiso   1.00
H79    H     0.47574   0.55040   0.21894   0.00000  Uiso   1.00
H80    H     0.53888   0.48876   0.19305   0.00000  Uiso   1.00
H81    H     0.53664   0.47914   0.32011   0.00000  Uiso   1.00
H82    H     0.47579   0.52460   0.66784   0.00000  Uiso   1.00
H83    H     0.47437   0.51575   0.79531   0.00000  Uiso   1.00
H84    H     0.53614   0.45283   0.76872   0.00000  Uiso   1.00
H85    H     0.53763   0.46148   0.64102   0.00000  Uiso   1.00
C86    C    -0.00505   0.49440   0.64998   0.00000  Uiso   1.00
C87    C     0.95985   0.47313   0.66827   0.00000  Uiso   1.00
C88    C     0.95597   0.46805   0.74073   0.00000  Uiso   1.00
C89    C    -0.01290   0.48413   0.79600   0.00000  Uiso   1.00
C90    C     0.02172   0.50652   0.77840   0.00000  Uiso   1.00
C91    C     0.02562   0.51166   0.70624   0.00000  Uiso   1.00
C92    C     0.00005   0.49754   0.57272   0.00000  Uiso   1.00
N93    N     0.03420   0.51748   0.55538   0.00000  Uiso   1.00
N94    N     0.03912   0.51963   0.48599   0.00000  Uiso   1.00
C95    C     0.01013   0.50180   0.43080   0.00000  Uiso   1.00
N96    N    -0.02401   0.48185   0.44813   0.00000  Uiso   1.00
N97    N    -0.02894   0.47971   0.51752   0.00000  Uiso   1.00
C98    C     0.01527   0.50489   0.35353   0.00000  Uiso   1.00
C99    C     0.98462   0.48767   0.29723   0.00000  Uiso   1.00
C100   C     0.98865   0.49251   0.22496   0.00000  Uiso   1.00
C101   C     0.02341   0.51449   0.20725   0.00000  Uiso   1.00
C102   C     0.05444   0.53081   0.26273   0.00000  Uiso   1.00
C103   C     0.05043   0.52603   0.33529   0.00000  Uiso   1.00
H104   H     0.93553   0.45974   0.62648   0.00000  Uiso   1.00
H105   H     0.92893   0.45081   0.75326   0.00000  Uiso   1.00
H106   H     0.04611   0.51935   0.82023   0.00000  Uiso   1.00
H107   H     0.05295   0.52850   0.69441   0.00000  Uiso   1.00
H108   H     0.95722   0.47103   0.30907   0.00000  Uiso   1.00
H109   H     0.96428   0.47978   0.18311   0.00000  Uiso   1.00
H110   H     0.08153   0.54798   0.25029   0.00000  Uiso   1.00
H111   H     0.07470   0.53950   0.37717   0.00000  Uiso   1.00
C112   C     0.50769   1.01123   0.34985   0.00000  Uiso   1.00
C113   C     0.52638   0.04528   0.33087   0.00000  Uiso   1.00
C114   C     0.53085   0.04933   0.25820   0.00000  Uiso   1.00
C115   C     0.51674   0.01942   0.20341   0.00000  Uiso   1.00
C116   C     0.49680   0.98563   0.22171   0.00000  Uiso   1.00
C117   C     0.49225   0.98156   0.29411   0.00000  Uiso   1.00
C118   C     0.50546   1.00637   0.42732   0.00000  Uiso   1.00
N119   N     0.48829   0.97332   0.44531   0.00000  Uiso   1.00
N120   N     0.48687   0.96872   0.51484   0.00000  Uiso   1.00
C121   C     0.50271   0.99695   0.56957   0.00000  Uiso   1.00
N122   N     0.51996   0.03003   0.55163   0.00000  Uiso   1.00
N123   N     0.52138   0.03463   0.48205   0.00000  Uiso   1.00
C124   C     0.50002   0.99190   0.64686   0.00000  Uiso   1.00
C125   C     0.51511   0.02135   0.70309   0.00000  Uiso   1.00
C126   C     0.51002   0.01690   0.77519   0.00000  Uiso   1.00
C127   C     0.48977  -0.01704   0.79260   0.00000  Uiso   1.00
C128   C     0.47592   0.95330   0.73727   0.00000  Uiso   1.00
C129   C     0.48102   0.95772   0.66503   0.00000  Uiso   1.00
H130   H     0.53837   0.06874   0.37228   0.00000  Uiso   1.00
H131   H     0.54629   0.07567   0.24518   0.00000  Uiso   1.00
H132   H     0.48558   0.96216   0.18028   0.00000  Uiso   1.00
H133   H     0.47744   0.95499   0.30652   0.00000  Uiso   1.00
H134   H     0.53010   0.04801   0.69129   0.00000  Uiso   1.00
H135   H     0.52107   0.04017   0.81709   0.00000  Uiso   1.00
H136   H     0.46024   0.92683   0.74951   0.00000  Uiso   1.00
H137   H     0.46925   0.93442   0.62322   0.00000  Uiso   1.00
C138   C     0.32472   0.49185   0.04201   0.00000  Uiso   1.00
C139   C     0.35585   0.52463   0.04559   0.00000  Uiso   1.00
C140   C     0.39068   0.52595   0.03606   0.00000  Uiso   1.00
C141   C     0.39549   0.49457   0.02339   0.00000  Uiso   1.00
C142   C     0.36448   0.46172   1.02029   0.00000  Uiso   1.00
C143   C     0.32943   0.46038   1.02930   0.00000  Uiso   1.00
C144   C     0.28762   0.49086   0.05012   0.00000  Uiso   1.00
N145   N     0.25623   0.45967   1.03742   0.00000  Uiso   1.00
N146   N     0.22281   0.45928   1.04157   0.00000  Uiso   1.00
C147   C     0.21947   0.49005   0.05880   0.00000  Uiso   1.00
N148   N     0.25094   0.52110   0.07243   0.00000  Uiso   1.00
N149   N     0.28425   0.52150   0.06817   0.00000  Uiso   1.00
C150   C     0.18231   0.49030   0.05865   0.00000  Uiso   1.00
C151   C     0.17973   0.52277   0.07243   0.00000  Uiso   1.00
C152   C     0.14504   0.52379   0.06631   0.00000  Uiso   1.00
C153   C     0.11190   0.49232   0.04695   0.00000  Uiso   1.00
C154   C     0.11429   0.45965   1.03590   0.00000  Uiso   1.00
C155   C     0.14916   0.45865   1.04133   0.00000  Uiso   1.00
H156   H     0.35335   0.54943   0.05530   0.00000  Uiso   1.00
H157   H     0.41394   0.55171   0.03908   0.00000  Uiso   1.00
H158   H     0.36715   0.43702   1.01011   0.00000  Uiso   1.00
H159   H     0.30607   0.43469   1.02636   0.00000  Uiso   1.00
H160   H     0.20459   0.54768   0.08631   0.00000  Uiso   1.00
H161   H     0.14426   0.54941   0.07565   0.00000  Uiso   1.00
H162   H     0.08927   0.43496   1.02053   0.00000  Uiso   1.00
H163   H     0.15010   0.43316   1.03030   0.00000  Uiso   1.00
C164   C     0.85804   0.28285   1.00925   0.00000  Uiso   1.00
C165   C     0.87207   0.30676   0.07533   0.00000  Uiso   1.00
C166   C     0.90049   0.34086   0.07801   0.00000  Uiso   1.00
C167   C     0.91580   0.35157   0.01496   0.00000  Uiso   1.00
C168   C     0.90320   0.32715   0.94981   0.00000  Uiso   1.00
C169   C     0.87439   0.29321   0.94681   0.00000  Uiso   1.00
C170   C     0.82512   0.24828   1.00463   0.00000  Uiso   1.00
N171   N     0.80520   0.22953   0.93879   0.00000  Uiso   1.00
N172   N     0.77400   0.19982   0.93472   0.00000  Uiso   1.00
C173   C     0.76150   0.18750   0.99630   0.00000  Uiso   1.00
N174   N     0.78172   0.20597   0.06210   0.00000  Uiso   1.00
N175   N     0.81280   0.23577   0.06618   0.00000  Uiso   1.00
C176   C     0.72548   0.15586   0.99209   0.00000  Uiso   1.00
C177   C     0.71569   0.13953   0.05409   0.00000  Uiso   1.00
C178   C     0.68061   0.11131   0.05154   0.00000  Uiso   1.00
C179   C     0.65443   0.09919   0.98729   0.00000  Uiso   1.00
C180   C     0.66447   0.11481   0.92475   0.00000  Uiso   1.00
C181   C     0.69973   0.14272   0.92697   0.00000  Uiso   1.00
H182   H     0.86014   0.29968   0.12445   0.00000  Uiso   1.00
H183   H     0.90979   0.35917   0.12899   0.00000  Uiso   1.00
H184   H     0.91453   0.33480   0.90038   0.00000  Uiso   1.00
H185   H     0.86440   0.27539   0.89516   0.00000  Uiso   1.00
H186   H     0.73493   0.14883   0.10495   0.00000  Uiso   1.00
H187   H     0.67358   0.09969   0.10053   0.00000  Uiso   1.00
H188   H     0.64482   0.10588   0.87443   0.00000  Uiso   1.00
H189   H     0.70634   0.15468   0.87824   0.00000  Uiso   1.00
C190   C     0.82966   0.50926   0.95574   0.00000  Uiso   1.00
C191   C     0.83363   0.47930  -0.02500   0.00000  Uiso   1.00
C192   C     0.86775   0.47746  -0.02250   0.00000  Uiso   1.00
C193   C     0.89924   0.50565   0.96129   0.00000  Uiso   1.00
C194   C     0.89542   0.53556   0.94084   0.00000  Uiso   1.00
C195   C     0.86084   0.53729   0.93773   0.00000  Uiso   1.00
C196   C     0.79314   0.51079   0.95675   0.00000  Uiso   1.00
N197   N     0.78657   0.53780   0.93389   0.00000  Uiso   1.00
N198   N     0.75340   0.53842   0.93590   0.00000  Uiso   1.00
C199   C     0.72558   0.51205   0.96102   0.00000  Uiso   1.00
N200   N     0.73240   0.48531  -0.01607   0.00000  Uiso   1.00
N201   N     0.76532   0.48467  -0.01813   0.00000  Uiso   1.00
C202   C     0.68839   0.51182   0.96403   0.00000  Uiso   1.00
C203   C     0.66105   0.48398  -0.00866   0.00000  Uiso   1.00
C204   C     0.62590   0.48286  -0.00498   0.00000  Uiso   1.00
C205   C     0.61689   0.50958   0.97173   0.00000  Uiso   1.00
C206   C     0.64411   0.53764   0.94461   0.00000  Uiso   1.00
C207   C     0.67954   0.53869   0.94053   0.00000  Uiso   1.00
H208   H     0.81040   0.45716  -0.01068   0.00000  Uiso   1.00
H209   H     0.86954   0.45411  -0.00583   0.00000  Uiso   1.00
H210   H     0.91917   0.55773   0.92806   0.00000  Uiso   1.00
H211   H     0.85871   0.56073   0.92248   0.00000  Uiso   1.00
H212   H     0.66673   0.46288   0.01040   0.00000  Uiso   1.00
H213   H     0.60589   0.46107   0.01715   0.00000  Uiso   1.00
H214   H     0.63798   0.55865   0.92634   0.00000  Uiso   1.00
H215   H     0.69991   0.56050   0.91913   0.00000  Uiso   1.00
C216   C     0.28134   0.84461   1.00805   0.00000  Uiso   1.00
C217   C     0.29083   0.86037   0.94531   0.00000  Uiso   1.00
C218   C     0.32559   0.88889   0.94712   0.00000  Uiso   1.00
C219   C     0.35172   0.90203   0.01148   0.00000  Uiso   1.00
C220   C     0.34183   0.88721   0.07494   0.00000  Uiso   1.00
C221   C     0.30689   0.85891   0.07339   0.00000  Uiso   1.00
C222   C     0.24604   0.81218   1.00415   0.00000  Uiso   1.00
N223   N     0.23414   0.79948   0.06581   0.00000  Uiso   1.00
N224   N     0.20360   0.76917   0.06188   0.00000  Uiso   1.00
C225   C     0.18381   0.75020   0.99609   0.00000  Uiso   1.00
N226   N     0.19560   0.76300   0.93448   0.00000  Uiso   1.00
N227   N     0.22600   0.79339   0.93843   0.00000  Uiso   1.00
C228   C     0.15143   0.71527   0.99163   0.00000  Uiso   1.00
C229   C     0.13806   0.69106   0.92596   0.00000  Uiso   1.00
C230   C     0.11000   0.65680   0.92355   0.00000  Uiso   1.00
C231   C     0.09443   0.64623   0.98645   0.00000  Uiso   1.00
C232   C     0.10635   0.67094   0.05108   0.00000  Uiso   1.00
C233   C     0.13479   0.70504   0.05383   0.00000  Uiso   1.00
H234   H     0.27172   0.85018   0.89424   0.00000  Uiso   1.00
H235   H     0.33252   0.89980   0.89737   0.00000  Uiso   1.00
H236   H     0.36143   0.89692   0.12538   0.00000  Uiso   1.00
H237   H     0.30048   0.84746   0.12274   0.00000  Uiso   1.00
H238   H     0.15027   0.69804   0.87706   0.00000  Uiso   1.00
H239   H     0.10124   0.63824   0.87299   0.00000  Uiso   1.00
H240   H     0.09481   0.66343   0.10039   0.00000  Uiso   1.00
H241   H     0.14428   0.72313   0.10511   0.00000  Uiso   1.00
C242   C     0.54127   0.84762   0.96054   0.00000  Uiso   1.00
C243   C     0.55574   0.87227   0.91280   0.00000  Uiso   1.00
C244   C     0.54905   0.90273   0.91625   0.00000  Uiso   1.00
C245   C     0.52669   0.90812   0.96562   0.00000  Uiso   1.00
C246   C     0.51184   0.88314   0.01228   0.00000  Uiso   1.00
C247   C     0.51942   0.85348   0.01040   0.00000  Uiso   1.00
C248   C     0.54822   0.81558   0.95913   0.00000  Uiso   1.00
N249   N     0.55041   0.80202   0.02167   0.00000  Uiso   1.00
N250   N     0.55378   0.77168   0.02065   0.00000  Uiso   1.00
C251   C     0.55476   0.75341   0.95697   0.00000  Uiso   1.00
N252   N     0.55294   0.76713   0.89430   0.00000  Uiso   1.00
N253   N     0.54993   0.79776   0.89541   0.00000  Uiso   1.00
C254   C     0.55495   0.71808   0.95617   0.00000  Uiso   1.00
C255   C     0.54103   0.69262   0.89239   0.00000  Uiso   1.00
C256   C     0.53662   0.65778   0.89480   0.00000  Uiso   1.00
C257   C     0.54658   0.64800   0.96075   0.00000  Uiso   1.00
C258   C     0.56230   0.67393   0.02347   0.00000  Uiso   1.00
C259   C     0.56628   0.70853   0.02129   0.00000  Uiso   1.00
H260   H     0.57263   0.86823   0.87381   0.00000  Uiso   1.00
H261   H     0.56073   0.92170   0.87976   0.00000  Uiso   1.00
H262   H     0.49480   0.88689   0.05129   0.00000  Uiso   1.00
H263   H     0.50764   0.83476   0.04734   0.00000  Uiso   1.00
H264   H     0.53198   0.69916   0.84144   0.00000  Uiso   1.00
H265   H     0.52449   0.63828   0.84558   0.00000  Uiso   1.00
H266   H     0.57024   0.66715   0.07502   0.00000  Uiso   1.00
H267   H     0.57740   0.72761   0.07120   0.00000  Uiso   1.00
C268   C     0.46207   0.28811   0.04232   0.00000  Uiso   1.00
C269   C     0.48124   0.31611   0.10073   0.00000  Uiso   1.00
C270   C     0.48416   0.35017   0.09584   0.00000  Uiso   1.00
C271   C     0.46819   0.35711   0.03221   0.00000  Uiso   1.00
C272   C     0.44802   0.32899   0.97452   0.00000  Uiso   1.00
C273   C     0.44488   0.29474   0.97958   0.00000  Uiso   1.00
C274   C     0.46218   0.25298   0.04580   0.00000  Uiso   1.00
N275   N     0.43851   0.22366   0.99768   0.00000  Uiso   1.00
N276   N     0.44024   0.19260   0.99930   0.00000  Uiso   1.00
C277   C     0.46585   0.18968   0.04879   0.00000  Uiso   1.00
N278   N     0.48926   0.21893   0.09706   0.00000  Uiso   1.00
N279   N     0.48739   0.24984   0.09573   0.00000  Uiso   1.00
C280   C     0.46979   0.15602   0.04792   0.00000  Uiso   1.00
C281   C     0.50294   0.15629   0.08226   0.00000  Uiso   1.00
C282   C     0.50822   0.12527   0.07708   0.00000  Uiso   1.00
C283   C     0.48021   0.09317   0.03863   0.00000  Uiso   1.00
C284   C     0.44640   0.09240   1.00688   0.00000  Uiso   1.00
C285   C     0.44138   0.12367   1.01081   0.00000  Uiso   1.00
H286   H     0.49458   0.31185   0.14999   0.00000  Uiso   1.00
H287   H     0.49982   0.37130   0.14122   0.00000  Uiso   1.00
H288   H     0.43547   0.33366   0.92481   0.00000  Uiso   1.00
H289   H     0.43013   0.27379   0.93342   0.00000  Uiso   1.00
H290   H     0.52539   0.18073   0.11127   0.00000  Uiso   1.00
H291   H     0.53445   0.12645   0.10245   0.00000  Uiso   1.00
H292   H     0.42450   0.06794   0.97653   0.00000  Uiso   1.00
H293   H     0.41550   0.12261   0.98403   0.00000  Uiso   1.00
loop_
_geom_bond_atom_site_label_1
_geom_bond_atom_site_label_2
_geom_bond_distance
_geom_bond_site_symmetry_2
_ccdc_geom_bond_type
Pr0    O3      2.328   .     S
Pr0    O5      2.267   .     S
Pr0    O6      2.260   .     S
Pr0    O7      2.328   .     S
Pr0    O14     2.320   .     S
Pr0    O4      2.275   1_554 S
Pr0    O18     2.243   1_554 S
Pr1    O2      2.316   .     S
Pr1    O15     2.317   .     S
Pr1    O17     2.273   .     S
Pr1    O18     2.258   .     S
Pr1    O19     2.328   .     S
Pr1    O6      2.242   1_556 S
Pr1    O16     2.264   1_556 S
O2     C9      1.305   1_556 A
O3     C9      1.308   .     A
O4     C10     1.278   .     A
O4     Pr0     2.275   1_556 S
O5     C10     1.277   1_554 A
O6     C13     1.365   .     S
O6     Pr1     2.242   1_554 S
O7     C13     1.205   .     D
C8     O18     1.366   .     S
C8     O19     1.206   .     D
C8     C75     1.474   .     S
C9     C141    1.484   .     S
C9     O2      1.305   1_554 A
C10    C257    1.477   .     S
C10    O5      1.277   1_556 A
C11    O16     1.277   .     A
C11    C271    1.477   .     S
C11    O17     1.278   1_554 A
C12    O15     1.307   .     A
C12    C205    1.481   .     S
C12    O14     1.305   1_556 A
C13    C63     1.474   .     S
O14    C12     1.305   1_554 A
O16    Pr1     2.264   1_554 S
O17    C11     1.278   1_556 A
O18    Pr0     2.243   1_556 S
Pr20   O23     2.311   .     S
Pr20   O25     2.271   .     S
Pr20   O27     2.333   .     S
Pr20   O24     2.268   1_556 S
Pr20   O26     2.252   1_655 S
Pr20   O34     2.321   1_655 S
Pr20   O38     2.240   1_556 S
Pr21   O35     2.317   .     S
Pr21   O37     2.270   .     S
Pr21   O39     2.334   .     S
Pr21   O22     2.325   1_455 S
Pr21   O26     2.238   1_554 S
Pr21   O36     2.267   1_554 S
Pr21   O38     2.253   1_455 S
O22    Pr21    2.325   1_655 S
O22    C29     1.306   1_554 A
O23    C29     1.305   .     A
O24    C30     1.277   .     A
O24    Pr20    2.268   1_554 S
O25    C30     1.278   1_556 A
O26    C33     1.361   .     S
O26    Pr20    2.252   1_455 S
O26    Pr21    2.238   1_556 S
O27    C33     1.204   1_655 D
C28    O39     1.204   .     D
C28    C101    1.472   .     S
C28    O38     1.360   1_455 S
C29    C193    1.484   .     S
C29    O22     1.306   1_556 A
C30    C167    1.475   .     S
C30    O25     1.278   1_554 A
C31    O36     1.277   .     A
C31    C231    1.475   .     S
C31    O37     1.278   1_556 A
C32    O35     1.306   .     A
C32    C153    1.482   .     S
C32    O34     1.305   1_554 A
C33    C89     1.471   .     S
C33    O27     1.204   1_455 D
O34    Pr20    2.321   1_455 S
O34    C32     1.305   1_556 A
O36    Pr21    2.267   1_556 S
O37    C31     1.278   1_554 A
O38    Pr20    2.240   1_554 S
O38    Pr21    2.253   1_655 S
O38    C28     1.360   1_655 S
Pr40   O43     2.319   .     S
Pr40   O45     2.270   .     S
Pr40   O47     2.331   .     S
Pr40   O44     2.270   1_554 S
Pr40   O46     2.253   1_545 S
Pr40   O54     2.324   1_544 S
Pr40   O58     2.235   1_554 S
Pr41   O55     2.312   .     S
Pr41   O57     2.271   .     S
Pr41   O59     2.335   .     S
Pr41   O42     2.320   1_566 S
Pr41   O46     2.242   1_556 S
Pr41   O56     2.271   1_556 S
Pr41   O58     2.258   1_565 S
O42    C49     1.304   .     A
O42    Pr41    2.320   1_544 S
O43    C49     1.306   .     A
O44    C50     1.277   .     A
O44    Pr40    2.270   1_556 S
O45    C50     1.277   1_554 A
O46    Pr40    2.253   1_565 S
O46    Pr41    2.242   1_554 S
O46    C53     1.362   1_565 S
O47    C53     1.205   .     D
C48    O59     1.203   .     D
C48    O58     1.359   1_565 S
C48    C127    1.472   1_565 S
C49    C283    1.474   .     S
C50    C179    1.476   .     S
C50    O45     1.277   1_556 A
C51    O56     1.277   .     A
C51    C219    1.477   .     S
C51    O57     1.277   1_554 A
C52    O54     1.305   .     A
C52    O55     1.305   .     A
C52    C245    1.474   .     S
C53    C115    1.471   .     S
C53    O46     1.362   1_545 S
O54    Pr40    2.324   1_566 S
O56    Pr41    2.271   1_554 S
O57    C51     1.277   1_556 A
O58    Pr40    2.235   1_556 S
O58    Pr41    2.258   1_545 S
O58    C48     1.359   1_545 S
C60    C61     1.407   .     A
C60    C65     1.407   .     A
C60    C66     1.485   .     S
C61    C62     1.398   .     A
C61    H78     1.083   .     S
C62    C63     1.403   .     A
C62    H79     1.083   .     S
C63    C64     1.403   .     A
C64    C65     1.399   .     A
C64    H80     1.083   .     S
C65    H81     1.083   .     S
C66    N67     1.359   .     A
C66    N71     1.359   .     A
N67    N68     1.332   .     A
N68    C69     1.359   .     A
C69    N70     1.359   .     A
C69    C72     1.485   .     S
N70    N71     1.332   .     A
C72    C73     1.407   .     A
C72    C77     1.408   .     A
C73    C74     1.398   .     A
C73    H82     1.083   .     S
C74    C75     1.402   .     A
C74    H83     1.083   .     S
C75    C76     1.403   .     A
C76    C77     1.399   .     A
C76    H84     1.083   .     S
C77    H85     1.083   .     S
C86    C91     1.406   .     A
C86    C92     1.483   .     S
C86    C87     1.409   1_455 A
C87    C88     1.400   .     A
C87    H104    1.083   .     S
C87    C86     1.409   1_655 A
C88    H105    1.083   .     S
C88    C89     1.403   1_655 A
C89    C90     1.402   .     A
C89    C88     1.403   1_455 A
C90    C91     1.395   .     A
C90    H106    1.083   .     S
C91    H107    1.082   .     S
C92    N93     1.360   .     A
C92    N97     1.358   .     A
N93    N94     1.332   .     A
N94    C95     1.358   .     A
C95    N96     1.360   .     A
C95    C98     1.483   .     S
N96    N97     1.332   .     A
C98    C103    1.409   .     A
C98    C99     1.406   1_455 A
C99    C100    1.395   .     A
C99    H108    1.082   .     S
C99    C98     1.406   1_655 A
C100   H109    1.083   .     S
C100   C101    1.402   1_655 A
C101   C102    1.403   .     A
C101   C100    1.402   1_455 A
C102   C103    1.400   .     A
C102   H110    1.083   .     S
C103   H111    1.083   .     S
C112   C117    1.406   .     A
C112   C118    1.483   .     S
C112   C113    1.408   1_565 A
C113   C114    1.399   .     A
C113   H130    1.083   .     S
C113   C112    1.408   1_545 A
C114   C115    1.403   .     A
C114   H131    1.083   .     S
C115   C116    1.402   1_545 A
C116   C117    1.395   .     A
C116   H132    1.084   .     S
C116   C115    1.402   1_565 A
C117   H133    1.083   .     S
C118   N119    1.359   .     A
C118   N123    1.358   1_565 A
N119   N120    1.331   .     A
N120   C121    1.358   .     A
C121   C124    1.483   .     S
C121   N122    1.360   1_565 A
N122   N123    1.332   .     A
N122   C121    1.360   1_545 A
N123   C118    1.358   1_545 A
C124   C129    1.408   .     A
C124   C125    1.406   1_565 A
C125   C126    1.396   .     A
C125   H134    1.083   .     S
C125   C124    1.406   1_545 A
C126   C127    1.402   .     A
C126   H135    1.083   .     S
C127   C128    1.402   1_545 A
C127   C48     1.472   1_545 S
C128   C129    1.399   .     A
C128   H136    1.083   .     S
C128   C127    1.402   1_565 A
C129   H137    1.082   .     S
C138   C139    1.406   .     A
C138   C144    1.485   .     S
C138   C143    1.407   1_554 A
C139   C140    1.395   .     A
C139   H156    1.083   .     S
C140   C141    1.405   .     A
C140   H157    1.083   .     S
C141   C142    1.407   1_554 A
C142   C143    1.401   .     A
C142   H158    1.083   .     S
C142   C141    1.407   1_556 A
C143   H159    1.083   .     S
C143   C138    1.407   1_556 A
C144   N149    1.357   .     A
C144   N145    1.359   1_554 A
N145   N146    1.335   .     A
N145   C144    1.359   1_556 A
N146   C147    1.359   1_556 A
C147   N148    1.358   .     A
C147   C150    1.485   .     S
C147   N146    1.359   1_554 A
N148   N149    1.331   .     A
C150   C151    1.406   .     A
C150   C155    1.407   1_554 A
C151   C152    1.395   .     A
C151   H160    1.083   .     S
C152   C153    1.405   .     A
C152   H161    1.083   .     S
C153   C154    1.406   1_554 A
C154   C155    1.402   .     A
C154   H162    1.083   .     S
C154   C153    1.406   1_556 A
C155   H163    1.083   .     S
C155   C150    1.407   1_556 A
C164   C169    1.406   .     A
C164   C170    1.483   .     S
C164   C165    1.407   1_556 A
C165   C166    1.398   .     A
C165   H182    1.083   .     S
C165   C164    1.407   1_554 A
C166   C167    1.403   .     A
C166   H183    1.083   .     S
C167   C168    1.404   1_554 A
C168   C169    1.398   .     A
C168   H184    1.083   .     S
C168   C167    1.404   1_556 A
C169   H185    1.083   .     S
C170   N171    1.359   .     A
C170   N175    1.358   1_556 A
N171   N172    1.333   .     A
N172   C173    1.359   .     A
C173   C176    1.482   .     S
C173   N174    1.358   1_556 A
N174   N175    1.332   .     A
N174   C173    1.358   1_554 A
N175   C170    1.358   1_554 A
C176   C181    1.407   .     A
C176   C177    1.406   1_556 A
C177   C178    1.398   .     A
C177   H186    1.083   .     S
C177   C176    1.406   1_554 A
C178   H187    1.083   .     S
C178   C179    1.404   1_554 A
C179   C180    1.404   .     A
C179   C178    1.404   1_556 A
C180   C181    1.398   .     A
C180   H188    1.083   .     S
C181   H189    1.083   .     S
C190   C195    1.408   .     A
C190   C196    1.485   .     S
C190   C191    1.405   1_556 A
C191   C192    1.390   .     A
C191   H208    1.083   .     S
C191   C190    1.405   1_554 A
C192   H209    1.083   .     S
C192   C193    1.405   1_554 A
C193   C194    1.407   .     A
C193   C192    1.405   1_556 A
C194   C195    1.405   .     A
C194   H210    1.083   .     S
C195   H211    1.083   .     S
C196   N197    1.360   .     A
C196   N201    1.357   1_556 A
N197   N198    1.337   .     A
N198   C199    1.362   .     A
C199   C202    1.485   .     S
C199   N200    1.355   1_556 A
N200   N201    1.328   .     A
N200   C199    1.355   1_554 A
N201   C196    1.357   1_554 A
C202   C207    1.408   .     A
C202   C203    1.406   1_556 A
C203   C204    1.391   .     A
C203   H212    1.083   .     S
C203   C202    1.406   1_554 A
C204   H213    1.083   .     S
C204   C205    1.404   1_554 A
C205   C206    1.407   .     A
C205   C204    1.404   1_556 A
C206   C207    1.404   .     A
C206   H214    1.083   .     S
C207   H215    1.083   .     S
C216   C217    1.406   .     A
C216   C222    1.483   .     S
C216   C221    1.407   1_556 A
C217   C218    1.398   .     A
C217   H234    1.083   .     S
C218   H235    1.083   .     S
C218   C219    1.404   1_556 A
C219   C220    1.404   .     A
C219   C218    1.404   1_554 A
C220   C221    1.399   .     A
C220   H236    1.083   .     S
C221   H237    1.083   .     S
C221   C216    1.407   1_554 A
C222   N227    1.359   .     A
C222   N223    1.358   1_556 A
N223   N224    1.333   .     A
N223   C222    1.358   1_554 A
N224   C225    1.359   1_554 A
C225   N226    1.358   .     A
C225   C228    1.482   .     S
C225   N224    1.359   1_556 A
N226   N227    1.332   .     A
C228   C229    1.407   .     A
C228   C233    1.406   1_556 A
C229   C230    1.398   .     A
C229   H238    1.083   .     S
C230   C231    1.403   .     A
C230   H239    1.083   .     S
C231   C232    1.404   1_556 A
C232   C233    1.398   .     A
C232   H240    1.083   .     S
C232   C231    1.404   1_554 A
C233   H241    1.083   .     S
C233   C228    1.406   1_554 A
C242   C243    1.406   .     A
C242   C248    1.477   .     S
C242   C247    1.403   1_556 A
C243   C244    1.404   .     A
C243   H260    1.083   .     S
C244   C245    1.405   .     A
C244   H261    1.083   .     S
C245   C246    1.403   1_556 A
C246   C247    1.393   .     A
C246   H262    1.084   .     S
C246   C245    1.403   1_554 A
C247   H263    1.083   .     S
C247   C242    1.403   1_554 A
C248   N253    1.359   .     A
C248   N249    1.357   1_556 A
N249   N250    1.330   .     A
N249   C248    1.357   1_554 A
N250   C251    1.357   1_554 A
C251   N252    1.360   .     A
C251   C254    1.481   .     S
C251   N250    1.357   1_556 A
N252   N253    1.335   .     A
C254   C255    1.406   .     A
C254   C259    1.405   1_556 A
C255   C256    1.401   .     A
C255   H264    1.083   .     S
C256   C257    1.405   .     A
C256   H265    1.083   .     S
C257   C258    1.403   1_556 A
C258   C259    1.396   .     A
C258   H266    1.083   .     S
C258   C257    1.403   1_554 A
C259   H267    1.083   .     S
C259   C254    1.405   1_554 A
C268   C269    1.405   .     A
C268   C274    1.481   .     S
C268   C273    1.407   1_554 A
C269   C270    1.395   .     A
C269   H286    1.083   .     S
C270   C271    1.403   .     A
C270   H287    1.083   .     S
C271   C272    1.405   1_554 A
C272   C273    1.401   .     A
C272   H288    1.083   .     S
C272   C271    1.405   1_556 A
C273   H289    1.083   .     S
C273   C268    1.407   1_556 A
C274   N279    1.358   .     A
C274   N275    1.360   1_554 A
N275   N276    1.334   .     A
N275   C274    1.360   1_556 A
N276   C277    1.360   1_556 A
C277   N278    1.357   .     A
C277   C280    1.480   .     S
C277   N276    1.360   1_554 A
N278   N279    1.330   .     A
C280   C281    1.406   .     A
C280   C285    1.406   1_554 A
C281   C282    1.395   .     A
C281   H290    1.083   .     S
C282   C283    1.402   .     A
C282   H291    1.084   .     S
C283   C284    1.404   1_554 A
C284   C285    1.400   .     A
C284   H292    1.083   .     S
C284   C283    1.404   1_556 A
C285   H293    1.082   .     S
C285   C280    1.406   1_556 A
