data_kag+N173+E35
_audit_creation_date              2025-01-21
_audit_creation_method            'Materials Studio'
_symmetry_space_group_name_H-M    'P1'
_symmetry_Int_Tables_number       1
_symmetry_cell_setting            triclinic
loop_
_symmetry_equiv_pos_as_xyz
  x,y,z
_cell_length_a                    33.2464
_cell_length_b                    33.2338
_cell_length_c                    15.7652
_cell_angle_alpha                 91.1101
_cell_angle_beta                  90.1262
_cell_angle_gamma                 120.0785
loop_
_atom_site_label
_atom_site_type_symbol
_atom_site_fract_x
_atom_site_fract_y
_atom_site_fract_z
_atom_site_U_iso_or_equiv
_atom_site_adp_type
_atom_site_occupancy
Gd0    Gd    0.52890   0.47344   1.01326   0.00000  Uiso   1.00
Gd1    Gd    0.56695   0.55435   0.01604   0.00000  Uiso   1.00
O2     O     0.56904   0.55300   0.15679   0.00000  Uiso   1.00
O3     O     0.53026   0.47606   0.15506   0.00000  Uiso   1.00
O4     O     0.46026   0.47031   0.01259   0.00000  Uiso   1.00
O5     O     0.49567   0.54654   1.02423   0.00000  Uiso   1.00
O6     O     0.56748   0.43402   1.01218   0.00000  Uiso   1.00
O7     O     0.49439   0.39510   0.01115   0.00000  Uiso   1.00
O8     O     0.52992   0.47511   0.87139   0.00000  Uiso   1.00
C9     C     0.53167   0.39371   1.01105   0.00000  Uiso   1.00
O10    O     0.56183   0.55162   0.87525   0.00000  Uiso   1.00
O11    O     0.60032   0.48120   1.01564   0.00000  Uiso   1.00
C12    C     0.45813   0.50718   0.02045   0.00000  Uiso   1.00
O13    O     0.63553   0.55739   0.00935   0.00000  Uiso   1.00
O14    O     0.52827   0.59376   0.02112   0.00000  Uiso   1.00
O15    O     0.60124   0.63266   1.01669   0.00000  Uiso   1.00
C16    C     0.54972   0.51480   0.19630   0.00000  Uiso   1.00
C17    C     0.56396   0.63404   0.01841   0.00000  Uiso   1.00
C18    C     0.63779   0.52051   0.01299   0.00000  Uiso   1.00
C19    C     0.54500   0.51340   0.83298   0.00000  Uiso   1.00
Gd20   Gd    0.02748   0.53500   1.00340   0.00000  Uiso   1.00
Gd21   Gd    0.07185   0.49893   0.00268   0.00000  Uiso   1.00
O22    O     0.07101   0.50055   0.14455   0.00000  Uiso   1.00
O23    O     0.02838   0.53444   0.14421   0.00000  Uiso   1.00
O24    O     0.09233   0.60386   0.00673   0.00000  Uiso   1.00
O25    O     0.13536   0.57080   0.00365   0.00000  Uiso   1.00
O26    O     0.94928   0.49590   1.00220   0.00000  Uiso   1.00
O27    O     0.98332   0.56898   0.00405   0.00000  Uiso   1.00
O28    O     0.02829   0.53369   0.86279   0.00000  Uiso   1.00
C29    C     0.94465   0.53159   0.00347   0.00000  Uiso   1.00
O30    O     0.07080   0.49958   0.86065   0.00000  Uiso   1.00
O31    O     0.96429   0.46334   0.99843   0.00000  Uiso   1.00
C32    C     0.13209   0.60751   0.00538   0.00000  Uiso   1.00
O33    O     0.00670   0.42963   1.00055   0.00000  Uiso   1.00
O34    O     0.15017   0.53764   0.00578   0.00000  Uiso   1.00
O35    O     0.11536   0.46451   1.00410   0.00000  Uiso   1.00
C36    C     0.04972   0.51780   0.18479   0.00000  Uiso   1.00
C37    C     0.15423   0.50161   1.00645   0.00000  Uiso   1.00
C38    C     0.96710   0.42642   0.99739   0.00000  Uiso   1.00
C39    C     0.04917   0.51646   0.82133   0.00000  Uiso   1.00
Gd40   Gd    0.51048   0.99460   1.00785   0.00000  Uiso   1.00
Gd41   Gd    0.59122   0.03642   0.01046   0.00000  Uiso   1.00
O42    O     0.58992   0.03778   0.15115   0.00000  Uiso   1.00
O43    O     0.51315  -0.00410   0.14994   0.00000  Uiso   1.00
O44    O     0.50876   0.06068   0.00986   0.00000  Uiso   1.00
O45    O     0.58507   0.10119   1.01088   0.00000  Uiso   1.00
O46    O     0.46746   0.91620   1.00581   0.00000  Uiso   1.00
O47    O     0.43233   0.95400   0.00687   0.00000  Uiso   1.00
O48    O     0.51208  -0.00482   0.86618   0.00000  Uiso   1.00
C49    C     0.42831   0.91419   1.00602   0.00000  Uiso   1.00
O50    O     0.58888   0.03353   0.86955   0.00000  Uiso   1.00
O51    O     0.51542   0.92952   1.00436   0.00000  Uiso   1.00
C52    C     0.54589   0.09968   0.01137   0.00000  Uiso   1.00
O53    O     0.59179   0.96949   0.01128   0.00000  Uiso   1.00
O54    O     0.63175   0.11446   0.00824   0.00000  Uiso   1.00
O55    O     0.66969   0.07936   1.00988   0.00000  Uiso   1.00
C56    C     0.55173   0.01727   0.19098   0.00000  Uiso   1.00
C57    C     0.67176   0.11836   0.00750   0.00000  Uiso   1.00
C58    C     0.55434   0.93061   1.00646   0.00000  Uiso   1.00
C59    C     0.55074   0.01423   0.82747   0.00000  Uiso   1.00
C60    C     0.54536   0.51794   0.46758   0.00000  Uiso   1.00
C61    C     0.56128   0.55920   0.42245   0.00000  Uiso   1.00
C62    C     0.56294   0.55793   0.33426   0.00000  Uiso   1.00
C63    C     0.54913   0.51592   0.29011   0.00000  Uiso   1.00
C64    C     0.53387   0.47547   0.33718   0.00000  Uiso   1.00
N65    N     0.53254   0.47752   0.42340   0.00000  Uiso   1.00
C66    C     0.54337   0.51726   0.56179   0.00000  Uiso   1.00
N67    N     0.53922   0.47954   0.60235   0.00000  Uiso   1.00
C68    C     0.53869   0.47696   0.68848   0.00000  Uiso   1.00
C69    C     0.54306   0.51411   0.73927   0.00000  Uiso   1.00
C70    C     0.54618   0.55276   0.69900   0.00000  Uiso   1.00
C71    C     0.54595   0.55437   0.61074   0.00000  Uiso   1.00
H72    H     0.57466   0.58993   0.30054   0.00000  Uiso   1.00
H73    H     0.52294   0.44231   0.30560   0.00000  Uiso   1.00
H74    H     0.53595   0.44642   0.71711   0.00000  Uiso   1.00
H75    H     0.54855   0.58175   0.73583   0.00000  Uiso   1.00
H76    H     0.57297   0.59246   0.45385   0.00000  Uiso   1.00
H77    H     0.54751   0.58440   0.58236   0.00000  Uiso   1.00
C78    C     0.04625   0.51825   0.55016   0.00000  Uiso   1.00
C79    C     0.01685   0.52885   0.59749   0.00000  Uiso   1.00
C80    C     0.01791   0.52807   0.68568   0.00000  Uiso   1.00
C81    C     0.04774   0.51629   0.72756   0.00000  Uiso   1.00
C82    C     0.07565   0.50464   0.67817   0.00000  Uiso   1.00
N83    N     0.07430   0.50599   0.59203   0.00000  Uiso   1.00
C84    C     0.04705   0.51926   0.45614   0.00000  Uiso   1.00
N85    N     0.06426   0.49545   0.41265   0.00000  Uiso   1.00
C86    C     0.06592   0.49465   0.32641   0.00000  Uiso   1.00
C87    C     0.04944   0.51877   0.27863   0.00000  Uiso   1.00
C88    C     0.03226   0.54408   0.32215   0.00000  Uiso   1.00
C89    C     0.03126   0.54470   0.41043   0.00000  Uiso   1.00
H90    H    -0.00499   0.53634   0.72113   0.00000  Uiso   1.00
H91    H     0.09882   0.49492   0.70792   0.00000  Uiso   1.00
H92    H     0.07968   0.47485   0.29542   0.00000  Uiso   1.00
H93    H     0.01992   0.56382   0.28792   0.00000  Uiso   1.00
H94    H    -0.00739   0.53699   0.56747   0.00000  Uiso   1.00
H95    H     0.01894   0.56563   0.44174   0.00000  Uiso   1.00
C96    C     0.55526   0.01911   0.46242   0.00000  Uiso   1.00
C97    C     0.59535   0.04922   0.41746   0.00000  Uiso   1.00
C98    C     0.59396   0.04855   0.32917   0.00000  Uiso   1.00
C99    C     0.55265   0.01844   0.28481   0.00000  Uiso   1.00
C100   C     0.51294  -0.01021   0.33188   0.00000  Uiso   1.00
N101   N     0.51522  -0.00925   0.41814   0.00000  Uiso   1.00
C102   C     0.55516   0.01773   0.55642   0.00000  Uiso   1.00
N103   N     0.51400  -0.00014   0.59794   0.00000  Uiso   1.00
C104   C     0.51144  -0.00220   0.68407   0.00000  Uiso   1.00
C105   C     0.55206   0.01451   0.73372   0.00000  Uiso   1.00
C106   C     0.59466   0.03211   0.69216   0.00000  Uiso   1.00
C107   C     0.59639   0.03361   0.60404   0.00000  Uiso   1.00
H108   H     0.62519   0.07199   0.29559   0.00000  Uiso   1.00
H109   H     0.48027  -0.03373   0.30019   0.00000  Uiso   1.00
H110   H     0.47780  -0.01650   0.71358   0.00000  Uiso   1.00
H111   H     0.62681   0.04458   0.72775   0.00000  Uiso   1.00
H112   H     0.62748   0.07372   0.44943   0.00000  Uiso   1.00
H113   H     0.62974   0.04645   0.57426   0.00000  Uiso   1.00
C114   C     0.32906   0.50589   1.02434   0.00000  Uiso   1.00
C115   C     0.36913   0.54374   0.06065   0.00000  Uiso   1.00
C116   C     0.41087   0.54353   0.06035   0.00000  Uiso   1.00
C117   C     0.41300   0.50563   0.02504   0.00000  Uiso   1.00
C118   C     0.37178   0.46738   0.99323   0.00000  Uiso   1.00
N119   N     0.33141   0.46858   0.99322   0.00000  Uiso   1.00
C120   C     0.28455   0.50581   1.01932   0.00000  Uiso   1.00
N121   N     0.24372   0.46451   1.01605   0.00000  Uiso   1.00
C122   C     0.20173   0.46224   1.01161   0.00000  Uiso   1.00
C123   C     0.19932   0.50319   1.01010   0.00000  Uiso   1.00
C124   C     0.24089   0.54595   0.01229   0.00000  Uiso   1.00
C125   C     0.28346   0.54747   0.01609   0.00000  Uiso   1.00
H126   H     0.44147   0.57289   0.08862   0.00000  Uiso   1.00
H127   H     0.37186   0.43717   0.96650   0.00000  Uiso   1.00
H128   H     0.17033   0.42852   1.00967   0.00000  Uiso   1.00
H129   H     0.24058   0.57827   0.01097   0.00000  Uiso   1.00
H130   H     0.36838   0.57307   0.08992   0.00000  Uiso   1.00
H131   H     0.31503   0.58100   0.01507   0.00000  Uiso   1.00
C132   C     0.84085   0.29531   0.98959   0.00000  Uiso   1.00
C133   C     0.84236   0.33452   0.95406   0.00000  Uiso   1.00
C134   C     0.88376   0.37695   0.95601   0.00000  Uiso   1.00
C135   C     0.92407   0.38065   0.99191   0.00000  Uiso   1.00
C136   C     0.92194   0.34036   1.02302   0.00000  Uiso   1.00
N137   N     0.88086   0.29932   1.02171   0.00000  Uiso   1.00
C138   C     0.79681   0.25002   0.99352   0.00000  Uiso   1.00
N139   N     0.79834   0.21011   1.00345   0.00000  Uiso   1.00
C140   C     0.75912   0.16761   1.00817   0.00000  Uiso   1.00
C141   C     0.71515   0.16369   1.00309   0.00000  Uiso   1.00
C142   C     0.71284   0.20425   0.99307   0.00000  Uiso   1.00
C143   C     0.75329   0.24731   0.98936   0.00000  Uiso   1.00
H144   H     0.88433   0.40685   0.92862   0.00000  Uiso   1.00
H145   H     0.95251   0.34176   1.05039   0.00000  Uiso   1.00
H146   H     0.76230   0.13702   1.01586   0.00000  Uiso   1.00
H147   H     0.67971   0.20279   0.98776   0.00000  Uiso   1.00
H148   H     0.81223   0.33283   0.92428   0.00000  Uiso   1.00
H149   H     0.74998   0.27793   0.98469   0.00000  Uiso   1.00
C150   C     0.81252   0.52388   0.00967   0.00000  Uiso   1.00
C151   C     0.81501   0.48289   0.00973   0.00000  Uiso   1.00
C152   C     0.85820   0.48567   0.00795   0.00000  Uiso   1.00
C153   C     0.89902   0.52899   0.00480   0.00000  Uiso   1.00
C154   C     0.89522   0.56917   0.00343   0.00000  Uiso   1.00
N155   N     0.85263   0.56565   0.00574   0.00000  Uiso   1.00
C156   C     0.76739   0.52267   0.01297   0.00000  Uiso   1.00
N157   N     0.76396   0.55882  -0.01830   0.00000  Uiso   1.00
C158   C     0.72334   0.55953  -0.01793   0.00000  Uiso   1.00
C159   C     0.68299   0.52208   0.01484   0.00000  Uiso   1.00
C160   C     0.68609   0.48514   0.04922   0.00000  Uiso   1.00
C161   C     0.72805   0.48535   0.04882   0.00000  Uiso   1.00
H162   H     0.85959   0.45385   0.00928   0.00000  Uiso   1.00
H163   H     0.92594   0.60327   0.00090   0.00000  Uiso   1.00
H164   H     0.72240   0.58879  -0.04472   0.00000  Uiso   1.00
H165   H     0.65616   0.45625   0.07752   0.00000  Uiso   1.00
H166   H     0.78412   0.44887   0.01000   0.00000  Uiso   1.00
H167   H     0.72951   0.45683   0.07765   0.00000  Uiso   1.00
C168   C     0.29852   0.78681   0.00602   0.00000  Uiso   1.00
C169   C     0.29905   0.82910  -0.00256   0.00000  Uiso   1.00
C170   C     0.34148   0.87074  -0.00246   0.00000  Uiso   1.00
C171   C     0.38329   0.87038   0.00553   0.00000  Uiso   1.00
C172   C     0.38133   0.82747   0.01302   0.00000  Uiso   1.00
N173   N     0.33962   0.78736   0.01284   0.00000  Uiso   1.00
C174   C     0.25474   0.74151   0.00616   0.00000  Uiso   1.00
N175   N     0.25589   0.70244  -0.01717   0.00000  Uiso   1.00
C176   C     0.21731   0.65950  -0.01813   0.00000  Uiso   1.00
C177   C     0.17429   0.65398   0.00594   0.00000  Uiso   1.00
C178   C     0.17224   0.69369   0.03053   0.00000  Uiso   1.00
C179   C     0.21233   0.73742   0.03116   0.00000  Uiso   1.00
H180   H     0.34158   0.90316   0.99077   0.00000  Uiso   1.00
H181   H     0.41277   0.82572   0.01974   0.00000  Uiso   1.00
H182   H     0.22016   0.62992  -0.03911   0.00000  Uiso   1.00
H183   H     0.13977   0.69086   1.05037   0.00000  Uiso   1.00
H184   H     0.26733   0.83019   0.98916   0.00000  Uiso   1.00
H185   H     0.21006   0.76731   1.05268   0.00000  Uiso   1.00
C186   C     0.55531   0.80238   1.00039   0.00000  Uiso   1.00
C187   C     0.51571   0.80348   0.97242   0.00000  Uiso   1.00
C188   C     0.51577   0.84541   0.97409   0.00000  Uiso   1.00
C189   C     0.55515   0.88652   0.00262   0.00000  Uiso   1.00
C190   C     0.59477   0.88448   0.02648   0.00000  Uiso   1.00
N191   N     0.59377   0.84301   0.02525   0.00000  Uiso   1.00
C192   C     0.55634   0.75833   1.00412   0.00000  Uiso   1.00
N193   N     0.59814   0.75998   0.00726   0.00000  Uiso   1.00
C194   C     0.60162   0.72098   0.01244   0.00000  Uiso   1.00
C195   C     0.56141   0.67706   1.01523   0.00000  Uiso   1.00
C196   C     0.51810   0.67456   1.01263   0.00000  Uiso   1.00
C197   C     0.51536   0.71488   1.00757   0.00000  Uiso   1.00
H198   H     0.48516   0.84575   0.95172   0.00000  Uiso   1.00
H199   H     0.62621   0.91557   0.04734   0.00000  Uiso   1.00
H200   H     0.63570   0.72432   0.01418   0.00000  Uiso   1.00
H201   H     0.48622   0.64142   1.01421   0.00000  Uiso   1.00
H202   H     0.48505   0.77269   0.94836   0.00000  Uiso   1.00
H203   H     0.48136   0.71166   1.00799   0.00000  Uiso   1.00
C204   C     0.54003   0.26971   0.01240   0.00000  Uiso   1.00
C205   C     0.58041   0.31301   0.00225   0.00000  Uiso   1.00
C206   C     0.57732   0.35322   0.00148   0.00000  Uiso   1.00
C207   C     0.53421   0.35067   0.01012   0.00000  Uiso   1.00
C208   C     0.49439   0.30674   0.01787   0.00000  Uiso   1.00
N209   N     0.49824   0.26783   0.01880   0.00000  Uiso   1.00
C210   C     0.54199   0.22621   0.01493   0.00000  Uiso   1.00
N211   N     0.50409   0.18517  -0.00994   0.00000  Uiso   1.00
C212   C     0.50415   0.14423  -0.01055   0.00000  Uiso   1.00
C213   C     0.54425   0.14327   0.01423   0.00000  Uiso   1.00
C214   C     0.58298   0.18482   0.04294   0.00000  Uiso   1.00
C215   C     0.58203   0.22622   0.04355   0.00000  Uiso   1.00
H216   H     0.60868   0.38631  -0.00674   0.00000  Uiso   1.00
H217   H     0.46040   0.30334   0.02379   0.00000  Uiso   1.00
H218   H     0.47316   0.11266  -0.03138   0.00000  Uiso   1.00
H219   H     0.61368   0.18515   0.06664   0.00000  Uiso   1.00
H220   H     0.61405   0.31600  -0.00657   0.00000  Uiso   1.00
H221   H     0.61207   0.25759   0.06781   0.00000  Uiso   1.00
loop_
_geom_bond_atom_site_label_1
_geom_bond_atom_site_label_2
_geom_bond_distance
_geom_bond_site_symmetry_2
_ccdc_geom_bond_type
Gd0    O6      2.246   .     S
Gd0    O8      2.238   .     S
Gd0    O11     2.256   .     S
Gd0    O3      2.235   1_556 S
Gd0    O4      2.232   1_556 S
Gd0    O7      2.258   1_556 S
Gd1    O2      2.222   .     S
Gd1    O13     2.234   .     S
Gd1    O14     2.250   .     S
Gd1    O5      2.255   1_554 S
Gd1    O10     2.222   1_554 S
Gd1    O15     2.258   1_554 S
O2     C16     1.276   .     A
O3     C16     1.277   .     A
O3     Gd0     2.235   1_554 S
O4     C12     1.266   .     A
O4     Gd0     2.232   1_554 S
O5     Gd1     2.255   1_556 S
O5     C12     1.278   1_556 A
O6     C9      1.270   .     A
O7     Gd0     2.258   1_554 S
O7     C9      1.263   1_554 A
O8     C19     1.276   .     A
C9     O7      1.263   1_556 A
C9     C207    1.474   1_556 S
O10    C19     1.274   .     A
O10    Gd1     2.222   1_556 S
O11    C18     1.277   1_556 A
C12    C117    1.477   .     S
C12    O5      1.278   1_554 A
O13    C18     1.267   .     A
O14    C17     1.270   .     A
O15    Gd1     2.258   1_556 S
O15    C17     1.263   1_556 A
C16    C63     1.479   .     S
C17    O15     1.263   1_554 A
C17    C195    1.476   1_554 S
C18    C159    1.478   .     S
C18    O11     1.277   1_554 A
C19    C69     1.480   .     S
Gd20   O28     2.217   .     S
Gd20   O23     2.221   1_556 S
Gd20   O24     2.222   1_556 S
Gd20   O26     2.250   1_455 S
Gd20   O27     2.257   1_456 S
Gd20   O31     2.251   1_455 S
Gd21   O22     2.237   .     S
Gd21   O25     2.260   .     S
Gd21   O34     2.253   .     S
Gd21   O30     2.240   1_554 S
Gd21   O33     2.235   1_554 S
Gd21   O35     2.250   1_554 S
O22    C36     1.276   .     A
O23    C36     1.274   .     A
O23    Gd20    2.221   1_554 S
O24    C32     1.266   .     A
O24    Gd20    2.222   1_554 S
O25    C32     1.278   .     A
O26    Gd20    2.250   1_655 S
O26    C29     1.270   1_556 A
O27    C29     1.263   .     A
O27    Gd20    2.257   1_654 S
O28    C39     1.274   .     A
C29    C153    1.476   .     S
C29    O26     1.270   1_554 A
O30    C39     1.278   .     A
O30    Gd21    2.240   1_556 S
O31    C38     1.276   .     A
O31    Gd20    2.251   1_655 S
C32    C177    1.477   .     S
O33    Gd21    2.235   1_556 S
O33    C38     1.267   1_455 A
O34    C37     1.271   1_554 A
O35    C37     1.262   .     A
O35    Gd21    2.250   1_556 S
C36    C87     1.479   .     S
C37    C123    1.475   .     S
C37    O34     1.271   1_556 A
C38    C135    1.477   .     S
C38    O33     1.267   1_655 A
C39    C81     1.479   .     S
Gd40   O46     2.258   .     S
Gd40   O51     2.249   .     S
Gd40   O43     2.240   1_566 S
Gd40   O44     2.225   1_566 S
Gd40   O47     2.249   1_556 S
Gd40   O48     2.235   1_565 S
Gd41   O42     2.218   .     S
Gd41   O54     2.246   .     S
Gd41   O45     2.262   1_554 S
Gd41   O50     2.221   1_554 S
Gd41   O53     2.234   1_545 S
Gd41   O55     2.261   1_554 S
O42    C56     1.274   .     A
O43    C56     1.278   .     A
O43    Gd40    2.240   1_544 S
O44    C52     1.265   .     A
O44    Gd40    2.225   1_544 S
O45    Gd41    2.262   1_556 S
O45    C52     1.278   1_556 A
O46    C49     1.270   .     A
O47    Gd40    2.249   1_554 S
O47    C49     1.261   1_554 A
O48    C59     1.276   .     A
O48    Gd40    2.235   1_545 S
C49    O47     1.261   1_556 A
C49    C171    1.475   1_556 S
O50    C59     1.274   .     A
O50    Gd41    2.221   1_556 S
O51    C58     1.277   .     A
C52    C213    1.477   .     S
C52    O45     1.278   1_554 A
O53    Gd41    2.234   1_565 S
O53    C58     1.268   1_554 A
O54    C57     1.270   .     A
O55    Gd41    2.261   1_556 S
O55    C57     1.264   1_556 A
C56    C99     1.479   .     S
C57    O55     1.264   1_554 A
C57    C141    1.477   1_554 S
C58    O53     1.268   1_556 A
C58    C189    1.479   1_556 S
C59    C105    1.479   .     S
C60    C61     1.406   .     A
C60    N65     1.364   .     A
C60    C66     1.487   .     S
C61    C62     1.392   .     A
C61    H76     1.079   .     S
C62    C63     1.401   .     A
C62    H72     1.083   .     S
C63    C64     1.404   .     A
C64    N65     1.362   .     A
C64    H73     1.082   .     S
C66    N67     1.363   .     A
C66    C71     1.407   .     A
N67    C68     1.362   .     A
C68    C69     1.403   .     A
C68    H74     1.081   .     S
C69    C70     1.401   .     A
C70    C71     1.394   .     A
C70    H75     1.083   .     S
C71    H77     1.079   .     S
C78    C79     1.405   .     A
C78    N83     1.364   .     A
C78    C84     1.483   .     S
C79    C80     1.392   .     A
C79    H94     1.081   .     S
C80    C81     1.403   .     A
C80    H90     1.083   .     S
C81    C82     1.403   .     A
C82    N83     1.361   .     A
C82    H91     1.082   .     S
C84    N85     1.363   .     A
C84    C89     1.406   .     A
N85    C86     1.361   .     A
C86    C87     1.404   .     A
C86    H92     1.082   .     S
C87    C88     1.402   .     A
C88    C89     1.392   .     A
C88    H93     1.083   .     S
C89    H95     1.081   .     S
C96    C97     1.405   .     A
C96    N101    1.364   .     A
C96    C102    1.483   .     S
C97    C98     1.392   .     A
C97    H112    1.081   .     S
C98    C99     1.403   .     A
C98    H108    1.083   .     S
C99    C100    1.404   .     A
C100   N101    1.361   .     A
C100   H109    1.083   .     S
C102   N103    1.363   .     A
C102   C107    1.406   .     A
N103   C104    1.362   .     A
C104   C105    1.404   .     A
C104   H110    1.082   .     S
C105   C106    1.402   .     A
C106   C107    1.391   .     A
C106   H111    1.083   .     S
C107   H113    1.080   .     S
C114   N119    1.363   .     A
C114   C120    1.481   .     S
C114   C115    1.405   1_556 A
C115   C116    1.391   .     A
C115   H130    1.082   .     S
C115   C114    1.405   1_554 A
C116   C117    1.401   .     A
C116   H126    1.083   .     S
C117   C118    1.404   1_554 A
C118   N119    1.362   .     A
C118   H127    1.083   .     S
C118   C117    1.404   1_556 A
C120   N121    1.363   .     A
C120   C125    1.405   1_556 A
N121   C122    1.361   .     A
C122   C123    1.403   .     A
C122   H128    1.083   .     S
C123   C124    1.400   1_556 A
C124   C125    1.392   .     A
C124   H129    1.080   .     S
C124   C123    1.400   1_554 A
C125   H131    1.083   .     S
C125   C120    1.405   1_554 A
C132   C133    1.406   .     A
C132   N137    1.364   .     A
C132   C138    1.486   .     S
C133   C134    1.391   .     A
C133   H148    1.081   .     S
C134   C135    1.400   .     A
C134   H144    1.083   .     S
C135   C136    1.403   .     A
C136   N137    1.363   .     A
C136   H145    1.082   .     S
C138   N139    1.364   .     A
C138   C143    1.406   .     A
N139   C140    1.364   .     A
C140   C141    1.403   .     A
C140   H146    1.082   .     S
C141   C142    1.400   .     A
C141   C57     1.477   1_556 S
C142   C143    1.391   .     A
C142   H147    1.081   .     S
C143   H149    1.081   .     S
C150   C151    1.405   .     A
C150   N155    1.363   .     A
C150   C156    1.482   .     S
C151   C152    1.392   .     A
C151   H166    1.081   .     S
C152   C153    1.401   .     A
C152   H162    1.082   .     S
C153   C154    1.403   .     A
C154   N155    1.362   .     A
C154   H163    1.082   .     S
C156   N157    1.364   .     A
C156   C161    1.405   .     A
N157   C158    1.362   .     A
C158   C159    1.403   .     A
C158   H164    1.082   .     S
C159   C160    1.402   .     A
C160   C161    1.391   .     A
C160   H165    1.083   .     S
C161   H167    1.082   .     S
C168   C169    1.405   .     A
C168   N173    1.362   .     A
C168   C174    1.480   .     S
C169   C170    1.396   .     A
C169   H184    1.081   1_554 S
C170   C171    1.402   .     A
C170   H180    1.083   1_554 S
C171   C172    1.402   .     A
C171   C49     1.475   1_554 S
C172   N173    1.359   .     A
C172   H181    1.081   .     S
C174   N175    1.362   .     A
C174   C179    1.405   .     A
N175   C176    1.359   .     A
C176   C177    1.402   .     A
C176   H182    1.080   .     S
C177   C178    1.402   .     A
C178   C179    1.395   .     A
C178   H183    1.083   1_554 S
C179   H185    1.081   1_554 S
H180   C170    1.083   1_556 S
H183   C178    1.083   1_556 S
H184   C169    1.081   1_556 S
H185   C179    1.081   1_556 S
C186   C187    1.406   .     A
C186   C192    1.484   .     S
C186   N191    1.363   1_556 A
C187   C188    1.392   .     A
C187   H202    1.081   .     S
C188   H198    1.082   .     S
C188   C189    1.401   1_556 A
C189   C190    1.403   .     A
C189   C188    1.401   1_554 A
C189   C58     1.479   1_554 S
C190   N191    1.362   .     A
C190   H199    1.082   .     S
N191   C186    1.363   1_554 A
C192   C197    1.406   .     A
C192   N193    1.363   1_556 A
N193   C194    1.362   .     A
N193   C192    1.363   1_554 A
C194   H200    1.082   .     S
C194   C195    1.402   1_554 A
C195   C196    1.400   .     A
C195   C194    1.402   1_556 A
C195   C17     1.476   1_556 S
C196   C197    1.392   .     A
C196   H201    1.081   .     S
C197   H203    1.080   .     S
C204   C205    1.404   .     A
C204   N209    1.363   .     A
C204   C210    1.481   .     S
C205   C206    1.391   .     A
C205   H220    1.082   .     S
C206   C207    1.400   .     A
C206   H216    1.082   .     S
C207   C208    1.403   .     A
C207   C9      1.474   1_554 S
C208   N209    1.362   .     A
C208   H217    1.082   .     S
C210   N211    1.363   .     A
C210   C215    1.404   .     A
N211   C212    1.362   .     A
C212   C213    1.404   .     A
C212   H218    1.082   .     S
C213   C214    1.400   .     A
C214   C215    1.392   .     A
C214   H219    1.081   .     S
C215   H221    1.082   .     S
