data_kag+N139+E9
_audit_creation_date              2025-01-21
_audit_creation_method            'Materials Studio'
_symmetry_space_group_name_H-M    'P1'
_symmetry_Int_Tables_number       1
_symmetry_cell_setting            triclinic
loop_
_symmetry_equiv_pos_as_xyz
  x,y,z
_cell_length_a                    42.1568
_cell_length_b                    34.9802
_cell_length_c                    23.3324
_cell_angle_alpha                 89.6418
_cell_angle_beta                  88.8568
_cell_angle_gamma                 121.4950
loop_
_atom_site_label
_atom_site_type_symbol
_atom_site_fract_x
_atom_site_fract_y
_atom_site_fract_z
_atom_site_U_iso_or_equiv
_atom_site_adp_type
_atom_site_occupancy
C0     C     0.52439   0.50042   0.79908   0.00000  Uiso   1.00
Sm1    Sm    0.48065   0.50722   0.09267   0.00000  Uiso   1.00
Sm2    Sm    0.53152   0.49997   0.91076   0.00000  Uiso   1.00
C3     C     0.50014   0.44469   0.02992   0.00000  Uiso   1.00
C4     C     0.58527   0.48819   0.94318   0.00000  Uiso   1.00
O5     O     0.51576   0.53202   0.16980   0.00000  Uiso   1.00
O6     O     0.45713   0.48162   0.18041   0.00000  Uiso   1.00
O7     O     0.51786   0.55406   0.92231   0.00000  Uiso   1.00
O8     O     0.51745   0.54320   0.01444   0.00000  Uiso   1.00
O9     O     0.42904   0.48576   1.04444   0.00000  Uiso   1.00
O10    O     0.45276   0.54643   0.09383   0.00000  Uiso   1.00
O11    O     0.49688   0.47501   0.83318   0.00000  Uiso   1.00
O12    O     0.55552   0.52557   0.82321   0.00000  Uiso   1.00
O13    O     0.49399   0.45288   0.08063   0.00000  Uiso   1.00
O14    O     0.49432   0.46386   0.98855   0.00000  Uiso   1.00
O15    O     0.58284   0.52144  -0.04017   0.00000  Uiso   1.00
O16    O     0.55939   0.46078   0.91045   0.00000  Uiso   1.00
C17    C     0.48842   0.50659   0.20417   0.00000  Uiso   1.00
C18    C     0.51148   0.56215   0.97294   0.00000  Uiso   1.00
C19    C     0.42665   0.51896   0.06147   0.00000  Uiso   1.00
C20    C     1.02126   0.49862   0.20158   0.00000  Uiso   1.00
Sm21   Sm    0.97750   0.50313   0.91059   0.00000  Uiso   1.00
Sm22   Sm    0.03195   0.50076   0.09000   0.00000  Uiso   1.00
C23    C     0.05150   0.56098   0.97264   0.00000  Uiso   1.00
C24    C     0.09707   0.51294   0.05932   0.00000  Uiso   1.00
O25    O     0.99171   0.47902   0.83186   0.00000  Uiso   1.00
O26    O    -0.02181   0.53069   0.82406   0.00000  Uiso   1.00
O27    O     0.97148   0.44730   0.07695   0.00000  Uiso   1.00
O28    O     0.98094   0.46392   0.98573   0.00000  Uiso   1.00
O29    O     0.94372   0.52388  -0.03851   0.00000  Uiso   1.00
O30    O     0.91584   0.46513   0.90879   0.00000  Uiso   1.00
O31    O     0.01691   0.52465   0.16813   0.00000  Uiso   1.00
O32    O     1.03074   0.47332   0.17681   0.00000  Uiso   1.00
O33    O     0.03817   0.55615   0.92291   0.00000  Uiso   1.00
O34    O     0.02882   0.53971   0.01419   0.00000  Uiso   1.00
O35    O     0.06652   0.48041   1.04049   0.00000  Uiso   1.00
O36    O     0.09359   0.53923   0.09318   0.00000  Uiso   1.00
C37    C    -0.01275   0.50517   0.79880   0.00000  Uiso   1.00
C38    C     0.95824   0.44245   0.02716   0.00000  Uiso   1.00
C39    C     0.91288   0.49150   0.94324   0.00000  Uiso   1.00
C40    C     0.48515  -0.02333   0.20181   0.00000  Uiso   1.00
Sm41   Sm    0.53130   0.03671   0.90806   0.00000  Uiso   1.00
Sm42   Sm    0.47781   0.96833   0.09005   0.00000  Uiso   1.00
C43    C     0.50483   0.94731   0.97155   0.00000  Uiso   1.00
C44    C     0.41881   0.89378   0.05668   0.00000  Uiso   1.00
O45    O     0.49750   0.02294   0.83011   0.00000  Uiso   1.00
O46    O     0.55418   1.03804   0.82077   0.00000  Uiso   1.00
O47    O     0.49824   0.04193   0.07765   0.00000  Uiso   1.00
O48    O     0.49573   0.03076   0.98562   0.00000  Uiso   1.00
O49    O     0.58255   0.07228  -0.04099   0.00000  Uiso   1.00
O50    O     0.56691   0.11137   0.90763   0.00000  Uiso   1.00
O51    O     0.51161   0.98208   0.16799   0.00000  Uiso   1.00
O52    O     0.45490  -0.03317   0.17737   0.00000  Uiso   1.00
O53    O     0.51088   0.96312   0.92055   0.00000  Uiso   1.00
O54    O     0.51342   0.97451   0.01249   0.00000  Uiso   1.00
O55    O     0.42655   0.93257   1.03911   0.00000  Uiso   1.00
O56    O     0.44240   0.89367   0.09043   0.00000  Uiso   1.00
C57    C     0.52393   1.02821   0.79632   0.00000  Uiso   1.00
C58    C     0.50440   0.05788   0.02670   0.00000  Uiso   1.00
C59    C     0.59044   0.11112   0.94138   0.00000  Uiso   1.00
C60    C     0.49975   0.50432   0.38141   0.00000  Uiso   1.00
N61    N     0.52954   0.53209   0.34689   0.00000  Uiso   1.00
N62    N     0.52598   0.53286   0.29032   0.00000  Uiso   1.00
C63    C     0.49251   0.50591   0.26632   0.00000  Uiso   1.00
N64    N     0.46274   0.47815   0.30080   0.00000  Uiso   1.00
N65    N     0.46630   0.47737   0.35733   0.00000  Uiso   1.00
C66    C     0.50354   0.50351   0.44378   0.00000  Uiso   1.00
N67    N     0.47369   0.47564   0.47810   0.00000  Uiso   1.00
N68    N     0.47701   0.47498   0.53470   0.00000  Uiso   1.00
C69    C     0.51032   0.50218   0.55907   0.00000  Uiso   1.00
N70    N     0.54019   0.53002   0.52475   0.00000  Uiso   1.00
N71    N     0.53686   0.53067   0.46813   0.00000  Uiso   1.00
C72    C     0.51395   0.50161   0.62150   0.00000  Uiso   1.00
N73    N     0.54728   0.52878   0.64583   0.00000  Uiso   1.00
N74    N     0.55057   0.52836   0.70246   0.00000  Uiso   1.00
C75    C     0.52066   0.50078   0.73680   0.00000  Uiso   1.00
N76    N     0.48732   0.47359   0.71254   0.00000  Uiso   1.00
N77    N     0.48403   0.47400   0.65588   0.00000  Uiso   1.00
C78    C    -0.00225   0.50388   0.62063   0.00000  Uiso   1.00
N79    N     0.00329   0.47623   0.65436   0.00000  Uiso   1.00
N80    N     0.00025   0.47692   0.71123   0.00000  Uiso   1.00
C81    C    -0.00841   0.50531   0.73637   0.00000  Uiso   1.00
N82    N    -0.01388   0.53303   0.70270   0.00000  Uiso   1.00
N83    N    -0.01082   0.53236   0.64583   0.00000  Uiso   1.00
C84    C     0.00071   0.50272   0.55797   0.00000  Uiso   1.00
N85    N    -0.00481   0.53034   0.52414   0.00000  Uiso   1.00
N86    N    -0.00218   0.52920   0.46725   0.00000  Uiso   1.00
C87    C     0.00602   0.50037   0.44217   0.00000  Uiso   1.00
N88    N     1.01151   0.47273   0.47601   0.00000  Uiso   1.00
N89    N     1.00888   0.47387   0.53288   0.00000  Uiso   1.00
C90    C     1.00927   0.49935   0.37954   0.00000  Uiso   1.00
N91    N     1.01810   0.47101   0.35462   0.00000  Uiso   1.00
N92    N     1.02162   0.47052   0.29781   0.00000  Uiso   1.00
C93    C     1.01637   0.49831   0.26391   0.00000  Uiso   1.00
N94    N     0.00744   0.52656   0.28876   0.00000  Uiso   1.00
N95    N     0.00394   0.52706   0.34559   0.00000  Uiso   1.00
C96    C     0.49662  -0.00865   0.37922   0.00000  Uiso   1.00
N97    N     0.46406  -0.01955   0.35470   0.00000  Uiso   1.00
N98    N     0.46041  -0.02433   0.29817   0.00000  Uiso   1.00
C99    C     0.48917  -0.01841   0.26409   0.00000  Uiso   1.00
N100   N     0.52172  -0.00758   0.28855   0.00000  Uiso   1.00
N101   N     0.52537  -0.00279   0.34511   0.00000  Uiso   1.00
C102   C     0.50068  -0.00312   0.44156   0.00000  Uiso   1.00
N103   N     0.53326   0.00791   0.46614   0.00000  Uiso   1.00
N104   N     0.53696   0.01305   0.52262   0.00000  Uiso   1.00
C105   C     0.50824   0.00737   0.55665   0.00000  Uiso   1.00
N106   N     0.47566  -0.00366   0.53207   0.00000  Uiso   1.00
N107   N     0.47196  -0.00881   0.47559   0.00000  Uiso   1.00
C108   C     0.51233   1.01301   0.61897   0.00000  Uiso   1.00
N109   N     0.48361   1.00727   0.65307   0.00000  Uiso   1.00
N110   N     0.48731   1.01223   0.70960   0.00000  Uiso   1.00
C111   C     0.51987   1.02312   0.73406   0.00000  Uiso   1.00
N112   N     0.54859   1.02891   0.70000   0.00000  Uiso   1.00
N113   N     0.54490   1.02395   0.64349   0.00000  Uiso   1.00
C114   C     0.33578   0.53150   1.02636   0.00000  Uiso   1.00
N115   N     0.36487   0.56354   0.05594   0.00000  Uiso   1.00
N116   N     0.39432   0.56014   0.06578   0.00000  Uiso   1.00
C117   C     0.39575   0.52457   1.04640   0.00000  Uiso   1.00
N118   N     0.36697   0.49288   1.01601   0.00000  Uiso   1.00
N119   N     0.33748   0.49625   1.00623   0.00000  Uiso   1.00
C120   C     0.30181   0.53299   1.02074   0.00000  Uiso   1.00
N121   N     0.27137   0.49894   0.99585   0.00000  Uiso   1.00
N122   N     0.23946   0.49825   0.99565   0.00000  Uiso   1.00
C123   C     0.23686   0.53159   1.02035   0.00000  Uiso   1.00
N124   N     0.26747   0.56597   0.04442   0.00000  Uiso   1.00
N125   N     0.29935   0.56666   0.04462   0.00000  Uiso   1.00
C126   C     0.20089   0.52868   1.02555   0.00000  Uiso   1.00
N127   N     0.19792   0.55988   0.05544   0.00000  Uiso   1.00
N128   N     0.16485   0.55532   0.06485   0.00000  Uiso   1.00
C129   C     0.13353   0.51942   1.04471   0.00000  Uiso   1.00
N130   N     0.13648   0.48852   1.01404   0.00000  Uiso   1.00
N131   N     0.16959   0.49305   1.00470   0.00000  Uiso   1.00
C132   C     0.84400   0.35541   0.00727   0.00000  Uiso   1.00
N133   N     0.86808   0.36643   0.96192   0.00000  Uiso   1.00
N134   N     0.90451   0.39426   0.96815   0.00000  Uiso   1.00
C135   C     0.91807   0.41289   0.01957   0.00000  Uiso   1.00
N136   N     0.89404   0.40116   0.06518   0.00000  Uiso   1.00
N137   N     0.85767   0.37288   0.05918   0.00000  Uiso   1.00
C138   C     0.80408   0.32357   0.00073   0.00000  Uiso   1.00
N139   N     0.78242   0.29846   0.04620   0.00000  Uiso   1.00
N140   N     0.74668   0.26742   0.03949   0.00000  Uiso   1.00
C141   C     0.73118   0.26094  -0.01272   0.00000  Uiso   1.00
N142   N     0.75268   0.28665   0.94204   0.00000  Uiso   1.00
N143   N     0.78854   0.31725   0.94857   0.00000  Uiso   1.00
C144   C     0.69283   0.22414  -0.02128   0.00000  Uiso   1.00
N145   N     0.67388   0.22418   0.93236   0.00000  Uiso   1.00
N146   N     0.64038   0.18884   0.92183   0.00000  Uiso   1.00
C147   C     0.62491   0.15199  -0.04313   0.00000  Uiso   1.00
N148   N     0.64371   0.15208   0.00345   0.00000  Uiso   1.00
N149   N     0.67695   0.18766   0.01443   0.00000  Uiso   1.00
C150   C     0.80963   0.47623  -0.01933   0.00000  Uiso   1.00
N151   N     0.84126   0.51208   0.00034   0.00000  Uiso   1.00
N152   N     0.87422   0.51644  -0.01011   0.00000  Uiso   1.00
C153   C     0.87666   0.48520  -0.04081   0.00000  Uiso   1.00
N154   N     0.84502   0.44909  -0.05974   0.00000  Uiso   1.00
N155   N     0.81210   0.44467  -0.04917   0.00000  Uiso   1.00
C156   C     0.77379   0.47358  -0.01333   0.00000  Uiso   1.00
N157   N     0.74287   0.43897  -0.03640   0.00000  Uiso   1.00
N158   N     0.71112   0.43859  -0.03643   0.00000  Uiso   1.00
C159   C     0.70911   0.47281  -0.01339   0.00000  Uiso   1.00
N160   N     0.73986   0.50708   0.01061   0.00000  Uiso   1.00
N161   N     0.77164   0.50745   0.01064   0.00000  Uiso   1.00
C162   C     0.67535   0.47469  -0.01939   0.00000  Uiso   1.00
N163   N     0.67403   0.51045  -0.00030   0.00000  Uiso   1.00
N164   N     0.64478   0.51417  -0.01080   0.00000  Uiso   1.00
C165   C     0.61591   0.48235  -0.04090   0.00000  Uiso   1.00
N166   N     0.61696   0.44628  -0.05921   0.00000  Uiso   1.00
N167   N     0.64615   0.44253  -0.04865   0.00000  Uiso   1.00
C168   C     0.31681   0.78015   1.01924   0.00000  Uiso   1.00
N169   N     0.33601   0.78019   1.06532   0.00000  Uiso   1.00
N170   N     0.36938   0.81576   0.07586   0.00000  Uiso   1.00
C171   C     0.38447   0.85276   1.04115   0.00000  Uiso   1.00
N172   N     0.36543   0.85258   0.99483   0.00000  Uiso   1.00
N173   N     0.33232   0.81678   0.98382   0.00000  Uiso   1.00
C174   C     0.27856   0.74307   1.01082   0.00000  Uiso   1.00
N175   N     0.26283   0.73659   0.95879   0.00000  Uiso   1.00
N176   N     0.22714   0.70529   0.95230   0.00000  Uiso   1.00
C177   C     0.20575   0.67992   0.99782   0.00000  Uiso   1.00
N178   N     0.22151   0.68625   1.04978   0.00000  Uiso   1.00
N179   N     0.25733   0.71709   1.05609   0.00000  Uiso   1.00
C180   C     0.16583   0.64792   0.99162   0.00000  Uiso   1.00
N181   N     0.14189   0.63705   1.03714   0.00000  Uiso   1.00
N182   N     0.10545   0.60920   0.03121   0.00000  Uiso   1.00
C183   C     0.09171   0.59036   0.97996   0.00000  Uiso   1.00
N184   N     0.11559   0.60192   0.93418   0.00000  Uiso   1.00
N185   N     0.15199   0.63025   0.93987   0.00000  Uiso   1.00
C186   C     0.47462   0.81398   0.99361   0.00000  Uiso   1.00
N187   N     0.48973   0.84322   0.03720   0.00000  Uiso   1.00
N188   N     0.49757   0.88522   0.03128   0.00000  Uiso   1.00
C189   C     0.49045   0.89949   0.98166   0.00000  Uiso   1.00
N190   N     0.47490   0.87010   0.93837   0.00000  Uiso   1.00
N191   N     0.46701   0.82808   0.94430   0.00000  Uiso   1.00
C192   C     0.47117   0.76998   0.99684   0.00000  Uiso   1.00
N193   N     0.45930   0.74252   0.95111   0.00000  Uiso   1.00
N194   N     0.46075   0.70538   0.95091   0.00000  Uiso   1.00
C195   C     0.47421   0.69436   0.99638   0.00000  Uiso   1.00
N196   N     0.48534   0.72131   0.04262   0.00000  Uiso   1.00
N197   N     0.48384   0.75843   0.04285   0.00000  Uiso   1.00
C198   C     0.48032   0.65675   0.99302   0.00000  Uiso   1.00
N199   N     0.49803   0.64908   0.03544   0.00000  Uiso   1.00
N200   N     0.50694   0.61789   0.02985   0.00000  Uiso   1.00
C201   C     0.49827   0.59306   0.98180   0.00000  Uiso   1.00
N202   N     0.48062   0.60076   0.93937   0.00000  Uiso   1.00
N203   N     0.47171   0.63193   0.94494   0.00000  Uiso   1.00
C204   C     0.53028   0.34924   0.00867   0.00000  Uiso   1.00
N205   N     0.53904   0.37381   0.05699   0.00000  Uiso   1.00
N206   N     0.53042   0.40521   0.06299   0.00000  Uiso   1.00
C207   C     0.51293   0.41339   0.02076   0.00000  Uiso   1.00
N208   N     0.50412   0.38881   0.97248   0.00000  Uiso   1.00
N209   N     0.51272   0.35738   0.96647   0.00000  Uiso   1.00
C210   C     0.53615   0.31145   0.00473   0.00000  Uiso   1.00
N211   N     0.52481   0.28472   0.95828   0.00000  Uiso   1.00
N212   N     0.52615   0.24750   0.95750   0.00000  Uiso   1.00
C213   C     0.53887   0.23563   0.00313   0.00000  Uiso   1.00
N214   N     0.55093   0.26286   0.04908   0.00000  Uiso   1.00
N215   N     0.54965   0.30011   0.04983   0.00000  Uiso   1.00
C216   C     0.53525   0.19152   0.00581   0.00000  Uiso   1.00
N217   N     0.54277   0.17706   0.05490   0.00000  Uiso   1.00
N218   N     0.53469   0.13495   0.06041   0.00000  Uiso   1.00
C219   C     0.51906   0.10580   0.01689   0.00000  Uiso   1.00
N220   N     0.51206   0.12042   0.96747   0.00000  Uiso   1.00
N221   N     0.52007   0.16253   0.96198   0.00000  Uiso   1.00
loop_
_geom_bond_atom_site_label_1
_geom_bond_atom_site_label_2
_geom_bond_distance
_geom_bond_site_symmetry_2
_ccdc_geom_bond_type
C0     O11     1.283   .     A
C0     O12     1.281   .     A
C0     C75     1.465   .     S
Sm1    O5      2.229   .     S
Sm1    O6      2.223   .     S
Sm1    O8      2.267   .     S
Sm1    O10     2.224   .     S
Sm1    O13     2.264   .     S
Sm1    O9      2.228   1_554 S
Sm2    O7      2.263   .     S
Sm2    O11     2.228   .     S
Sm2    O12     2.224   .     S
Sm2    O14     2.267   .     S
Sm2    O16     2.223   .     S
Sm2    O15     2.229   1_556 S
C3     O13     1.272   .     A
C3     C207    1.466   .     S
C3     O14     1.271   1_554 A
C4     O16     1.281   .     A
C4     O15     1.282   1_556 A
C4     C165    1.464   1_556 S
O5     C17     1.283   .     A
O6     C17     1.281   .     A
O7     C18     1.272   .     A
O8     C18     1.271   1_554 A
O9     Sm1     2.228   1_556 S
O9     C19     1.282   1_556 A
O10    C19     1.281   .     A
O14    C3      1.271   1_556 A
O15    Sm2     2.229   1_554 S
O15    C4      1.282   1_554 A
C17    C63     1.465   .     S
C18    C201    1.466   .     S
C18    O8      1.271   1_556 A
C19    O9      1.282   1_554 A
C19    C117    1.464   1_554 S
C20    O32     1.282   .     A
C20    C93     1.464   .     S
C20    O31     1.282   1_655 A
Sm21   O25     2.224   .     S
Sm21   O28     2.272   .     S
Sm21   O30     2.219   .     S
Sm21   O26     2.225   1_655 S
Sm21   O29     2.234   1_556 S
Sm21   O33     2.268   1_655 S
Sm22   O31     2.225   .     S
Sm22   O34     2.273   .     S
Sm22   O36     2.219   .     S
Sm22   O27     2.269   1_455 S
Sm22   O32     2.224   1_455 S
Sm22   O35     2.234   1_554 S
C23    O33     1.273   .     A
C23    C183    1.467   .     S
C23    O34     1.272   1_556 A
C24    O36     1.280   .     A
C24    O35     1.282   1_554 A
C24    C129    1.464   1_554 S
O25    C37     1.282   1_655 A
O26    C37     1.282   .     A
O26    Sm21    2.225   1_455 S
O27    C38     1.273   .     A
O27    Sm22    2.269   1_655 S
O28    C38     1.272   1_556 A
O29    Sm21    2.234   1_554 S
O29    C39     1.282   1_554 A
O30    C39     1.280   .     A
O31    C20     1.282   1_455 A
O32    Sm22    2.224   1_655 S
O33    Sm21    2.268   1_455 S
O34    C23     1.272   1_554 A
O35    Sm22    2.234   1_556 S
O35    C24     1.282   1_556 A
C37    C81     1.464   .     S
C37    O25     1.282   1_455 A
C38    C135    1.467   .     S
C38    O28     1.272   1_554 A
C39    O29     1.282   1_556 A
C39    C153    1.464   1_556 S
C40    O52     1.282   .     A
C40    C99     1.467   .     S
C40    O51     1.283   1_545 A
Sm41   O45     2.229   .     S
Sm41   O48     2.264   .     S
Sm41   O50     2.231   .     S
Sm41   O46     2.226   1_545 S
Sm41   O49     2.223   1_556 S
Sm41   O53     2.262   1_545 S
Sm42   O51     2.229   .     S
Sm42   O54     2.263   .     S
Sm42   O56     2.230   .     S
Sm42   O47     2.262   1_565 S
Sm42   O52     2.226   1_565 S
Sm42   O55     2.224   1_554 S
C43    O53     1.273   .     A
C43    C189    1.467   .     S
C43    O54     1.270   1_556 A
C44    O56     1.282   .     A
C44    O55     1.281   1_554 A
C44    C171    1.464   1_554 S
O45    C57     1.283   1_545 A
O46    C57     1.282   .     A
O46    Sm41    2.226   1_565 S
O47    C58     1.273   .     A
O47    Sm42    2.262   1_545 S
O48    C58     1.271   1_556 A
O49    Sm41    2.223   1_554 S
O49    C59     1.281   1_554 A
O50    C59     1.283   .     A
O51    C40     1.283   1_565 A
O52    Sm42    2.226   1_545 S
O53    Sm41    2.262   1_565 S
O54    C43     1.270   1_554 A
O55    Sm42    2.224   1_556 S
O55    C44     1.281   1_556 A
C57    C111    1.467   .     S
C57    O45     1.283   1_565 A
C58    C219    1.467   .     S
C58    O48     1.271   1_554 A
C59    O49     1.281   1_556 A
C59    C147    1.464   1_556 S
C60    N61     1.358   .     A
C60    N65     1.357   .     A
C60    C66     1.469   .     S
N61    N62     1.333   .     A
N62    C63     1.357   .     A
C63    N64     1.357   .     A
N64    N65     1.332   .     A
C66    N67     1.358   .     A
C66    N71     1.358   .     A
N67    N68     1.332   .     A
N68    C69     1.357   .     A
C69    N70     1.358   .     A
C69    C72     1.469   .     S
N70    N71     1.333   .     A
C72    N73     1.358   .     A
C72    N77     1.358   .     A
N73    N74     1.332   .     A
N74    C75     1.357   .     A
C75    N76     1.357   .     A
N76    N77     1.333   .     A
C78    N79     1.358   .     A
C78    N83     1.358   .     A
C78    C84     1.467   .     S
N79    N80     1.332   .     A
N80    C81     1.357   .     A
C81    N82     1.357   .     A
N82    N83     1.332   .     A
C84    N85     1.358   .     A
C84    N89     1.357   1_455 A
N85    N86     1.332   .     A
N86    C87     1.358   .     A
C87    N88     1.357   1_455 A
C87    C90     1.467   1_455 S
N88    N89     1.332   .     A
N88    C87     1.357   1_655 A
N89    C84     1.357   1_655 A
C90    N91     1.358   .     A
C90    C87     1.467   1_655 S
C90    N95     1.358   1_655 A
N91    N92     1.332   .     A
N92    C93     1.357   .     A
C93    N94     1.357   1_655 A
N94    N95     1.332   .     A
N94    C93     1.357   1_455 A
N95    C90     1.358   1_455 A
C96    N97     1.358   .     A
C96    N101    1.358   .     A
C96    C102    1.470   .     S
N97    N98     1.332   .     A
N98    C99     1.357   .     A
C99    N100    1.357   .     A
N100   N101    1.333   .     A
C102   N103    1.358   .     A
C102   N107    1.358   .     A
N103   N104    1.333   .     A
N104   C105    1.358   .     A
C105   N106    1.358   .     A
C105   C108    1.470   1_545 S
N106   N107    1.333   .     A
C108   N109    1.358   .     A
C108   N113    1.358   .     A
C108   C105    1.470   1_565 S
N109   N110    1.333   .     A
N110   C111    1.357   .     A
C111   N112    1.357   .     A
N112   N113    1.333   .     A
C114   N119    1.358   .     A
C114   C120    1.468   .     S
C114   N115    1.358   1_556 A
N115   N116    1.332   .     A
N115   C114    1.358   1_554 A
N116   C117    1.357   1_554 A
C117   N118    1.357   .     A
C117   N116    1.357   1_556 A
C117   C19     1.464   1_556 S
N118   N119    1.333   .     A
C120   N121    1.358   .     A
C120   N125    1.357   1_556 A
N121   N122    1.333   .     A
N122   C123    1.358   .     A
C123   C126    1.468   .     S
C123   N124    1.357   1_556 A
N124   N125    1.332   .     A
N124   C123    1.357   1_554 A
N125   C120    1.357   1_554 A
C126   N131    1.359   .     A
C126   N127    1.357   1_556 A
N127   N128    1.331   .     A
N127   C126    1.357   1_554 A
N128   C129    1.357   1_554 A
C129   N130    1.357   .     A
C129   N128    1.357   1_556 A
C129   C24     1.464   1_556 S
N130   N131    1.333   .     A
C132   N137    1.357   .     A
C132   C138    1.466   .     S
C132   N133    1.357   1_554 A
N133   N134    1.332   .     A
N133   C132    1.357   1_556 A
N134   C135    1.356   1_556 A
C135   N136    1.358   .     A
C135   N134    1.356   1_554 A
N136   N137    1.332   .     A
C138   N139    1.357   .     A
C138   N143    1.357   1_554 A
N139   N140    1.333   .     A
N140   C141    1.358   .     A
C141   C144    1.467   .     S
C141   N142    1.358   1_554 A
N142   N143    1.332   .     A
N142   C141    1.358   1_556 A
N143   C138    1.357   1_556 A
C144   N149    1.357   .     A
C144   N145    1.358   1_554 A
N145   N146    1.333   .     A
N145   C144    1.358   1_556 A
N146   C147    1.357   1_556 A
C147   N148    1.357   .     A
C147   N146    1.357   1_554 A
C147   C59     1.464   1_554 S
N148   N149    1.332   .     A
C150   N151    1.359   .     A
C150   N155    1.357   .     A
C150   C156    1.468   .     S
N151   N152    1.333   .     A
N152   C153    1.357   .     A
C153   N154    1.357   .     A
C153   C39     1.464   1_554 S
N154   N155    1.331   .     A
C156   N157    1.357   .     A
C156   N161    1.358   .     A
N157   N158    1.331   .     A
N158   C159    1.357   .     A
C159   N160    1.358   .     A
C159   C162    1.468   .     S
N160   N161    1.333   .     A
C162   N163    1.358   .     A
C162   N167    1.358   .     A
N163   N164    1.333   .     A
N164   C165    1.357   .     A
C165   N166    1.357   .     A
C165   C4      1.464   1_554 S
N166   N167    1.332   .     A
C168   N169    1.358   .     A
C168   N173    1.357   .     A
C168   C174    1.467   .     S
N169   N170    1.333   1_556 A
N170   N169    1.333   1_554 A
N170   C171    1.357   1_554 A
C171   N172    1.357   .     A
C171   N170    1.357   1_556 A
C171   C44     1.464   1_556 S
N172   N173    1.332   .     A
C174   N175    1.358   .     A
C174   N179    1.358   .     A
N175   N176    1.333   .     A
N176   C177    1.357   .     A
C177   N178    1.357   .     A
C177   C180    1.466   .     S
N178   N179    1.332   .     A
C180   N181    1.357   .     A
C180   N185    1.357   .     A
N181   N182    1.332   1_556 A
N182   N181    1.332   1_554 A
N182   C183    1.356   1_554 A
C183   N184    1.358   .     A
C183   N182    1.356   1_556 A
N184   N185    1.332   .     A
C186   N191    1.358   .     A
C186   C192    1.470   .     S
C186   N187    1.358   1_556 A
N187   N188    1.333   .     A
N187   C186    1.358   1_554 A
N188   C189    1.357   1_554 A
C189   N190    1.357   .     A
C189   N188    1.357   1_556 A
N190   N191    1.332   .     A
C192   N193    1.358   .     A
C192   N197    1.358   1_556 A
N193   N194    1.332   .     A
N194   C195    1.358   .     A
C195   C198    1.469   .     S
C195   N196    1.358   1_556 A
N196   N197    1.333   .     A
N196   C195    1.358   1_554 A
N197   C192    1.358   1_554 A
C198   N203    1.358   .     A
C198   N199    1.358   1_556 A
N199   N200    1.333   .     A
N199   C198    1.358   1_554 A
N200   C201    1.357   1_554 A
C201   N202    1.357   .     A
C201   N200    1.357   1_556 A
N202   N203    1.332   .     A
C204   N205    1.358   .     A
C204   C210    1.469   .     S
C204   N209    1.358   1_554 A
N205   N206    1.332   .     A
N206   C207    1.357   .     A
C207   N208    1.357   1_554 A
N208   N209    1.333   .     A
N208   C207    1.357   1_556 A
N209   C204    1.358   1_556 A
C210   N215    1.358   .     A
C210   N211    1.358   1_554 A
N211   N212    1.333   .     A
N211   C210    1.358   1_556 A
N212   C213    1.358   1_556 A
C213   N214    1.358   .     A
C213   C216    1.470   .     S
C213   N212    1.358   1_554 A
N214   N215    1.332   .     A
C216   N217    1.357   .     A
C216   N221    1.358   1_554 A
N217   N218    1.332   .     A
N218   C219    1.357   .     A
C219   N220    1.357   1_554 A
N220   N221    1.333   .     A
N220   C219    1.357   1_556 A
N221   C216    1.358   1_556 A
