data_kag+N123+E1
_audit_creation_date              2025-01-21
_audit_creation_method            'Materials Studio'
_symmetry_space_group_name_H-M    'P1'
_symmetry_Int_Tables_number       1
_symmetry_cell_setting            triclinic
loop_
_symmetry_equiv_pos_as_xyz
  x,y,z
_cell_length_a                    44.0196
_cell_length_b                    42.4228
_cell_length_c                    19.1218
_cell_angle_alpha                 100.3402
_cell_angle_beta                  90.0180
_cell_angle_gamma                 125.1480
loop_
_atom_site_label
_atom_site_type_symbol
_atom_site_fract_x
_atom_site_fract_y
_atom_site_fract_z
_atom_site_U_iso_or_equiv
_atom_site_adp_type
_atom_site_occupancy
Ce0    Ce    0.54535   0.51582   0.01242   0.00000  Uiso   1.00
Ce1    Ce    0.46542   0.48241   0.98632   0.00000  Uiso   1.00
C2     C     0.47466   0.49805   0.13048   0.00000  Uiso   1.00
C3     C     0.61840   0.54410   0.02674   0.00000  Uiso   1.00
C4     C     0.52448   0.57669   0.99985   0.00000  Uiso   1.00
C5     C     0.53440   0.50778   0.87037   0.00000  Uiso   1.00
C6     C     0.39315   0.45662   0.97055   0.00000  Uiso   1.00
C7     C     0.48585   0.42106  -0.00302   0.00000  Uiso   1.00
O8     O     0.44491   0.48505   0.09543   0.00000  Uiso   1.00
O9     O     0.50354   0.50554   0.08971   0.00000  Uiso   1.00
O10    O     0.60093   0.54343   0.08046   0.00000  Uiso   1.00
O11    O     0.59895   0.53187   0.96564   0.00000  Uiso   1.00
O12    O     0.55166   0.57402   1.01357   0.00000  Uiso   1.00
O13    O     0.48957   0.54694   0.98773   0.00000  Uiso   1.00
O14    O     0.56561   0.52354   0.90214   0.00000  Uiso   1.00
O15    O     0.50564   0.48677   0.91022   0.00000  Uiso   1.00
O16    O     0.41049   0.45619   0.91710   0.00000  Uiso   1.00
O17    O     0.41231   0.46873   0.03202   0.00000  Uiso   1.00
O18    O     0.45843   0.42439  -0.00994   0.00000  Uiso   1.00
O19    O     0.52114   0.45042   0.00430   0.00000  Uiso   1.00
Ce20   Ce    0.02656   0.48305  -0.01328   0.00000  Uiso   1.00
Ce21   Ce    0.98028   0.51242   0.01104   0.00000  Uiso   1.00
C22    C     0.98537   0.50783   0.87044   0.00000  Uiso   1.00
C23    C     0.07217   0.45970   0.97133   0.00000  Uiso   1.00
C24    C     0.93787   0.41778  -0.01085   0.00000  Uiso   1.00
C25    C     0.03211   0.49599   0.13006   0.00000  Uiso   1.00
C26    C     0.93682   0.53846   0.02537   0.00000  Uiso   1.00
C27    C     0.06907   0.57752   1.00686   0.00000  Uiso   1.00
O28    O     0.97016   0.52201   0.90165   0.00000  Uiso   1.00
O29    O    -0.00898   0.48667   0.90943   0.00000  Uiso   1.00
O30    O     0.05479   0.45978   0.91779   0.00000  Uiso   1.00
O31    O     0.06542   0.47053   0.03271   0.00000  Uiso   1.00
O32    O     0.97014   0.42333  -0.01340   0.00000  Uiso   1.00
O33    O     0.93332   0.44586  -0.00402   0.00000  Uiso   1.00
O34    O     0.04905   0.48482   0.09578   0.00000  Uiso   1.00
O35    O     0.01106   0.50277   0.08893   0.00000  Uiso   1.00
O36    O     0.95294   0.53703   0.07905   0.00000  Uiso   1.00
O37    O     0.94376   0.52761   0.96430   0.00000  Uiso   1.00
O38    O     0.03765   0.57250   1.01773   0.00000  Uiso   1.00
O39    O     0.07255   0.54880   0.99390   0.00000  Uiso   1.00
Ce40   Ce    0.51538   0.97074   1.01010   0.00000  Uiso   1.00
Ce41   Ce    0.49284   0.02881   0.00122   0.00000  Uiso   1.00
C42    C     0.49227   0.00964   0.13338   0.00000  Uiso   1.00
C43    C     0.53343   0.91963   1.00785   0.00000  Uiso   1.00
C44    C     0.58155   0.06267   1.00095   0.00000  Uiso   1.00
C45    C     0.51667   0.99052   0.87864   0.00000  Uiso   1.00
C46    C     0.47416   0.07920   0.00061   0.00000  Uiso   1.00
C47    C     0.42660   0.93674   0.00936   0.00000  Uiso   1.00
O48    O     0.46749   0.00932   0.10552   0.00000  Uiso   1.00
O49    O     0.52008   0.02001   0.09017   0.00000  Uiso   1.00
O50    O     0.54080   0.94555   0.06404   0.00000  Uiso   1.00
O51    O     0.51765   0.92052   0.95302   0.00000  Uiso   1.00
O52    O     0.57356   0.02797   1.00203   0.00000  Uiso   1.00
O53    O     0.55698   0.07052  -0.00018   0.00000  Uiso   1.00
O54    O     0.54146   0.99093   0.90681   0.00000  Uiso   1.00
O55    O     0.48854   0.97979   0.92124   0.00000  Uiso   1.00
O56    O     0.46706   0.05301   0.94519   0.00000  Uiso   1.00
O57    O     0.49000   0.07898   0.05624   0.00000  Uiso   1.00
O58    O     0.43449   0.97135   0.00757   0.00000  Uiso   1.00
O59    O     0.45141   0.92937   1.01246   0.00000  Uiso   1.00
C60    C     0.48901   0.51148   0.35784   0.00000  Uiso   1.00
C61    C     0.45375   0.49600   0.32191   0.00000  Uiso   1.00
C62    C     0.44911   0.49258   0.24797   0.00000  Uiso   1.00
C63    C     0.47961   0.50431   0.20895   0.00000  Uiso   1.00
C64    C     0.51493   0.52050   0.24509   0.00000  Uiso   1.00
C65    C     0.51963   0.52423   0.31889   0.00000  Uiso   1.00
C66    C     0.49377   0.51245   0.43490   0.00000  Uiso   1.00
C67    C     0.52560   0.54530   0.48014   0.00000  Uiso   1.00
C68    C     0.53183   0.54478   0.55133   0.00000  Uiso   1.00
C69    C     0.50638   0.51136   0.57860   0.00000  Uiso   1.00
C70    C     0.47406   0.47889   0.53377   0.00000  Uiso   1.00
C71    C     0.46779   0.47945   0.46260   0.00000  Uiso   1.00
C72    C     0.51374   0.51020   0.65330   0.00000  Uiso   1.00
C73    C     0.48435   0.49360   0.69539   0.00000  Uiso   1.00
C74    C     0.49122   0.49256   0.76582   0.00000  Uiso   1.00
C75    C     0.52755   0.50800   0.79539   0.00000  Uiso   1.00
C76    C     0.55701   0.52455   0.75360   0.00000  Uiso   1.00
C77    C     0.55014   0.52556   0.68302   0.00000  Uiso   1.00
H78    H     0.42978   0.48631   0.35091   0.00000  Uiso   1.00
H79    H     0.42158   0.47999   0.22113   0.00000  Uiso   1.00
H80    H     0.53886   0.52956   0.21617   0.00000  Uiso   1.00
H81    H     0.54700   0.53586   0.34516   0.00000  Uiso   1.00
H82    H     0.54580   0.57130   0.46024   0.00000  Uiso   1.00
H83    H     0.55657   0.57055   0.58505   0.00000  Uiso   1.00
H84    H     0.45416   0.45255   0.55309   0.00000  Uiso   1.00
H85    H     0.44332   0.45351   0.42853   0.00000  Uiso   1.00
H86    H     0.45613   0.48197   0.67423   0.00000  Uiso   1.00
H87    H     0.46815   0.48014   0.79745   0.00000  Uiso   1.00
H88    H     0.58527   0.53662   0.77542   0.00000  Uiso   1.00
H89    H     0.57323   0.53795   0.65146   0.00000  Uiso   1.00
C90    C     0.01041   0.51262   0.65489   0.00000  Uiso   1.00
C91    C     1.02273   0.49742   0.69773   0.00000  Uiso   1.00
C92    C     1.01429   0.49579   0.76777   0.00000  Uiso   1.00
C93    C    -0.00639   0.50954   0.79640   0.00000  Uiso   1.00
C94    C    -0.01827   0.52532   0.75433   0.00000  Uiso   1.00
C95    C    -0.01005   0.52672   0.68396   0.00000  Uiso   1.00
C96    C     0.01810   0.51284   0.57960   0.00000  Uiso   1.00
C97    C     0.02756   0.54492   0.54991   0.00000  Uiso   1.00
C98    C     0.03299   0.54416   0.47795   0.00000  Uiso   1.00
C99    C     0.02911   0.51133   0.43438   0.00000  Uiso   1.00
C100   C     1.02057   0.47969   0.46440   0.00000  Uiso   1.00
C101   C     1.01507   0.48041   0.53631   0.00000  Uiso   1.00
C102   C     0.03175   0.50905   0.35690   0.00000  Uiso   1.00
C103   C     1.05072   0.49449   0.32173   0.00000  Uiso   1.00
C104   C     1.05151   0.49078   0.24780   0.00000  Uiso   1.00
C105   C     0.03320   0.50141   0.20816   0.00000  Uiso   1.00
C106   C     0.01453   0.51621   0.24336   0.00000  Uiso   1.00
C107   C     0.01383   0.52003   0.31706   0.00000  Uiso   1.00
H108   H     1.03909   0.48699   0.67722   0.00000  Uiso   1.00
H109   H     1.02415   0.48396   0.79971   0.00000  Uiso   1.00
H110   H    -0.03425   0.53613   0.77552   0.00000  Uiso   1.00
H111   H    -0.02033   0.53810   0.65187   0.00000  Uiso   1.00
H112   H     0.03071   0.57059   0.58229   0.00000  Uiso   1.00
H113   H     0.04001   0.56915   0.45618   0.00000  Uiso   1.00
H114   H     1.01682   0.45377   0.43163   0.00000  Uiso   1.00
H115   H     1.00729   0.45501   0.55743   0.00000  Uiso   1.00
H116   H     1.06483   0.48592   0.35136   0.00000  Uiso   1.00
H117   H     1.06591   0.47908   0.22152   0.00000  Uiso   1.00
H118   H    -0.00001   0.52435   0.21380   0.00000  Uiso   1.00
H119   H    -0.00161   0.53057   0.34262   0.00000  Uiso   1.00
C120   C     0.49870   0.00045   0.35397   0.00000  Uiso   1.00
C121   C     0.46717   0.99532   0.32067   0.00000  Uiso   1.00
C122   C     0.46461   0.99692   0.24851   0.00000  Uiso   1.00
C123   C     0.49355   0.00384   0.20748   0.00000  Uiso   1.00
C124   C     0.52467   0.00800   0.23980   0.00000  Uiso   1.00
C125   C     0.52723   0.00631   0.31215   0.00000  Uiso   1.00
C126   C     0.50202   0.00049   0.43212   0.00000  Uiso   1.00
C127   C     0.53682   0.02613   0.47578   0.00000  Uiso   1.00
C128   C     0.53980   0.02656   0.54905   0.00000  Uiso   1.00
C129   C     0.50805   0.00148   0.58113   0.00000  Uiso   1.00
C130   C     0.47326   0.97585   0.53749   0.00000  Uiso   1.00
C131   C     0.47028   0.97540   0.46423   0.00000  Uiso   1.00
C132   C     0.51129   1.00137   0.65916   0.00000  Uiso   1.00
C133   C     0.48270   0.99546   0.70083   0.00000  Uiso   1.00
C134   C     0.48494   0.99321   0.77285   0.00000  Uiso   1.00
C135   C     0.51581   0.99690   0.80499   0.00000  Uiso   1.00
C136   C     0.54489   0.00397   0.76425   0.00000  Uiso   1.00
C137   C     0.54266   0.00616   0.69238   0.00000  Uiso   1.00
H138   H     0.44486   0.99128   0.35095   0.00000  Uiso   1.00
H139   H     0.44031   0.99376   0.22529   0.00000  Uiso   1.00
H140   H     0.54737   0.01327   0.20952   0.00000  Uiso   1.00
H141   H     0.55164   0.00969   0.33536   0.00000  Uiso   1.00
H142   H     0.56179   0.04652   0.45367   0.00000  Uiso   1.00
H143   H     0.56701   0.04705   0.58081   0.00000  Uiso   1.00
H144   H     0.44830   0.95545   0.55961   0.00000  Uiso   1.00
H145   H     0.44306   0.95487   0.43254   0.00000  Uiso   1.00
H146   H     0.45847   0.99244   0.67773   0.00000  Uiso   1.00
H147   H     0.46219   0.98787   0.80301   0.00000  Uiso   1.00
H148   H     0.56901   0.00677   0.78741   0.00000  Uiso   1.00
H149   H     0.56507   0.01036   0.66225   0.00000  Uiso   1.00
C150   C     0.28429   0.43299  -0.05044   0.00000  Uiso   1.00
C151   C     0.30348   0.44273   0.01746   0.00000  Uiso   1.00
C152   C     0.33832   0.44919   0.02396   0.00000  Uiso   1.00
C153   C     0.35475   0.44595   0.96274   0.00000  Uiso   1.00
C154   C     0.33529   0.43526   0.89470   0.00000  Uiso   1.00
C155   C     0.30040   0.42895   0.88815   0.00000  Uiso   1.00
C156   C     0.24874   0.42942  -0.05629   0.00000  Uiso   1.00
C157   C     0.22226   0.41132   0.99074   0.00000  Uiso   1.00
C158   C     0.19088   0.41193   0.99096   0.00000  Uiso   1.00
C159   C     0.18527   0.43070  -0.05578   0.00000  Uiso   1.00
C160   C     0.21088   0.44731  -0.10497   0.00000  Uiso   1.00
C161   C     0.24229   0.44666  -0.10525   0.00000  Uiso   1.00
C162   C     0.15434   0.43534  -0.04974   0.00000  Uiso   1.00
C163   C     0.14615   0.44532   0.01820   0.00000  Uiso   1.00
C164   C     0.11878   0.45223   0.02477   0.00000  Uiso   1.00
C165   C     0.09898   0.44936  -0.03643   0.00000  Uiso   1.00
C166   C     0.10652   0.43861   0.89552   0.00000  Uiso   1.00
C167   C     0.13401   0.43173   0.88891   0.00000  Uiso   1.00
H168   H     0.29224   0.44687   0.06581   0.00000  Uiso   1.00
H169   H     0.35288   0.45787   0.07711   0.00000  Uiso   1.00
H170   H     0.34741   0.43270   0.84663   0.00000  Uiso   1.00
H171   H     0.28620   0.42131   0.83512   0.00000  Uiso   1.00
H172   H     0.22615   0.39725   1.02831   0.00000  Uiso   1.00
H173   H     0.17130   0.39826   1.02862   0.00000  Uiso   1.00
H174   H     0.20760   0.46243  -0.14102   0.00000  Uiso   1.00
H175   H     0.26242   0.46129  -0.14150   0.00000  Uiso   1.00
H176   H     0.16180   0.44909   0.06650   0.00000  Uiso   1.00
H177   H     0.11379   0.46078   0.07792   0.00000  Uiso   1.00
H178   H     0.09164   0.43619   0.84744   0.00000  Uiso   1.00
H179   H     0.13951   0.42381   0.83586   0.00000  Uiso   1.00
C180   C     0.83854   0.30117  -0.02026   0.00000  Uiso   1.00
C181   C     0.87282   0.31284   0.01388   0.00000  Uiso   1.00
C182   C     0.90552   0.35041   0.01511   0.00000  Uiso   1.00
C183   C     0.90414   0.37720  -0.01607   0.00000  Uiso   1.00
C184   C     0.86987   0.36536   0.94942   0.00000  Uiso   1.00
C185   C     0.83744   0.32752   0.94666   0.00000  Uiso   1.00
C186   C     0.80348   0.26260   0.98213   0.00000  Uiso   1.00
C187   C     0.77925   0.23685   0.91897   0.00000  Uiso   1.00
C188   C     0.74455   0.20198   0.92222   0.00000  Uiso   1.00
C189   C     0.73337   0.19286   0.98876   0.00000  Uiso   1.00
C190   C     0.75793   0.21815   0.05171   0.00000  Uiso   1.00
C191   C     0.79288   0.25258   0.04838   0.00000  Uiso   1.00
C192   C     0.69502   0.15891   0.99318   0.00000  Uiso   1.00
C193   C     0.67153   0.16536   0.03267   0.00000  Uiso   1.00
C194   C     0.63467   0.13392   0.03513   0.00000  Uiso   1.00
C195   C     0.62088   0.09533   0.99945   0.00000  Uiso   1.00
C196   C     0.64462   0.08864   0.96116   0.00000  Uiso   1.00
C197   C     0.68134   0.12037   0.95716   0.00000  Uiso   1.00
H198   H     0.87415   0.29292   0.03991   0.00000  Uiso   1.00
H199   H     0.93160   0.35897   0.04240   0.00000  Uiso   1.00
H200   H     0.86819   0.38545   0.92465   0.00000  Uiso   1.00
H201   H     0.81121   0.31922   0.92065   0.00000  Uiso   1.00
H202   H     0.78699   0.24408   0.86735   0.00000  Uiso   1.00
H203   H     0.72579   0.18297   0.87315   0.00000  Uiso   1.00
H204   H     0.74970   0.21156   0.10350   0.00000  Uiso   1.00
H205   H     0.81102   0.27224   0.09772   0.00000  Uiso   1.00
H206   H     0.68154   0.19493   0.06036   0.00000  Uiso   1.00
H207   H     0.61693   0.13973   0.06528   0.00000  Uiso   1.00
H208   H     0.63446   0.05910   0.93291   0.00000  Uiso   1.00
H209   H     0.69911   0.11491   0.92630   0.00000  Uiso   1.00
C210   C     0.85750   0.56678   1.04648   0.00000  Uiso   1.00
C211   C     0.86506   0.55592   0.97846   0.00000  Uiso   1.00
C212   C     0.89160   0.54779   0.97177   0.00000  Uiso   1.00
C213   C     0.91113   0.55028   1.03292   0.00000  Uiso   1.00
C214   C     0.90427   0.56196   0.10102   0.00000  Uiso   1.00
C215   C     0.87766   0.57009   0.10774   0.00000  Uiso   1.00
C216   C     0.82711   0.57225   1.05277   0.00000  Uiso   1.00
C217   C     0.82158   0.59086   0.00553   0.00000  Uiso   1.00
C218   C     0.79046   0.59195   0.00591   0.00000  Uiso   1.00
C219   C     0.76415   0.57445   1.05354   0.00000  Uiso   1.00
C220   C     0.77061   0.55747   1.10306   0.00000  Uiso   1.00
C221   C     0.80175   0.55637   1.10268   0.00000  Uiso   1.00
C222   C     0.72857   0.57085   1.04752   0.00000  Uiso   1.00
C223   C     0.70922   0.56078   0.97959   0.00000  Uiso   1.00
C224   C     0.67396   0.55340   0.97303   0.00000  Uiso   1.00
C225   C     0.65729   0.55606   0.03423   0.00000  Uiso   1.00
C226   C     0.67703   0.56735   0.10227   0.00000  Uiso   1.00
C227   C     0.71234   0.57465   0.10887   0.00000  Uiso   1.00
H228   H     0.84945   0.55227   0.93025   0.00000  Uiso   1.00
H229   H     0.89605   0.53847   0.91862   0.00000  Uiso   1.00
H230   H     0.91895   0.56409   0.14910   0.00000  Uiso   1.00
H231   H     0.87262   0.57863   0.16085   0.00000  Uiso   1.00
H232   H     0.84098   0.60396  -0.03272   0.00000  Uiso   1.00
H233   H     0.78659   0.60583  -0.03210   0.00000  Uiso   1.00
H234   H     0.75063   0.54325   1.13980   0.00000  Uiso   1.00
H235   H     0.80495   0.54138   1.13913   0.00000  Uiso   1.00
H236   H     0.72062   0.55695   0.93128   0.00000  Uiso   1.00
H237   H     0.65923   0.54433   0.91989   0.00000  Uiso   1.00
H238   H     0.66478   0.56953   0.15036   0.00000  Uiso   1.00
H239   H     0.72671   0.58272   0.16193   0.00000  Uiso   1.00
C240   C     0.31161   0.83840   0.00229   0.00000  Uiso   1.00
C241   C     0.33896   0.83246   0.98248   0.00000  Uiso   1.00
C242   C     0.37612   0.86447   0.98527   0.00000  Uiso   1.00
C243   C     0.38696   0.90336   0.00769   0.00000  Uiso   1.00
C244   C     0.35968   0.90951   0.02750   0.00000  Uiso   1.00
C245   C     0.32233   0.87725   0.02546   0.00000  Uiso   1.00
C246   C     0.27229   0.80368  -0.00096   0.00000  Uiso   1.00
C247   C     0.25145   0.80114   0.05626   0.00000  Uiso   1.00
C248   C     0.21640   0.76589   0.05684   0.00000  Uiso   1.00
C249   C     0.20182   0.73274   0.00021   0.00000  Uiso   1.00
C250   C     0.22167   0.73625   0.94118   0.00000  Uiso   1.00
C251   C     0.25639   0.77132   0.94043   0.00000  Uiso   1.00
C252   C     0.16767   0.69360   1.00428   0.00000  Uiso   1.00
C253   C     0.16798   0.66021   0.98717   0.00000  Uiso   1.00
C254   C     0.13615   0.62291   0.98911   0.00000  Uiso   1.00
C255   C     0.10296   0.61783   1.00792   0.00000  Uiso   1.00
C256   C     0.10263   0.65132   0.02568   0.00000  Uiso   1.00
C257   C     0.13483   0.68896   0.02428   0.00000  Uiso   1.00
H258   H     0.33169   0.80288   0.96547   0.00000  Uiso   1.00
H259   H     0.39635   0.85870   0.96906   0.00000  Uiso   1.00
H260   H     0.36725   0.93918   0.04514   0.00000  Uiso   1.00
H261   H     0.30178   0.88263   0.04104   0.00000  Uiso   1.00
H262   H     0.26303   0.82569   0.10203   0.00000  Uiso   1.00
H263   H     0.20165   0.76393   0.10307   0.00000  Uiso   1.00
H264   H     0.21069   0.71139   0.89622   0.00000  Uiso   1.00
H265   H     0.27130   0.77284   0.89462   0.00000  Uiso   1.00
H266   H     0.19303   0.66297   0.97237   0.00000  Uiso   1.00
H267   H     0.13755   0.59793   0.97494   0.00000  Uiso   1.00
H268   H     0.07748   0.64844   0.04010   0.00000  Uiso   1.00
H269   H     0.13387   0.71427   0.03722   0.00000  Uiso   1.00
C270   C     0.54739   0.82737   1.00552   0.00000  Uiso   1.00
C271   C     0.56019   0.85724   0.06766   0.00000  Uiso   1.00
C272   C     0.55682   0.88818   0.06816   0.00000  Uiso   1.00
C273   C     0.54095   0.88979   1.00629   0.00000  Uiso   1.00
C274   C     0.52996   0.86094   0.94330   0.00000  Uiso   1.00
C275   C     0.53298   0.82995   0.94303   0.00000  Uiso   1.00
C276   C     0.54645   0.79203   1.00647   0.00000  Uiso   1.00
C277   C     0.51298   0.75436   0.98186   0.00000  Uiso   1.00
C278   C     0.51153   0.72058   0.98070   0.00000  Uiso   1.00
C279   C     0.54375   0.72354   1.00276   0.00000  Uiso   1.00
C280   C     0.57722   0.76144   0.02863   0.00000  Uiso   1.00
C281   C     0.57844   0.79538   0.03109   0.00000  Uiso   1.00
C282   C     0.54191   0.68702   0.99879   0.00000  Uiso   1.00
C283   C     0.56315   0.68487   0.05040   0.00000  Uiso   1.00
C284   C     0.55907   0.64945   0.04888   0.00000  Uiso   1.00
C285   C     0.53302   0.61542   0.99691   0.00000  Uiso   1.00
C286   C     0.51281   0.61779   0.94401   0.00000  Uiso   1.00
C287   C     0.51754   0.65324   0.94432   0.00000  Uiso   1.00
H288   H     0.57129   0.85572   0.11650   0.00000  Uiso   1.00
H289   H     0.56562   0.91013   0.11737   0.00000  Uiso   1.00
H290   H     0.51799   0.86163   0.89459   0.00000  Uiso   1.00
H291   H     0.52341   0.80750   0.89424   0.00000  Uiso   1.00
H292   H     0.48772   0.75106   0.96415   0.00000  Uiso   1.00
H293   H     0.48489   0.69209   0.96301   0.00000  Uiso   1.00
H294   H     0.60265   0.76498   0.04573   0.00000  Uiso   1.00
H295   H     0.60452   0.82423   0.05060   0.00000  Uiso   1.00
H296   H     0.58184   0.71001   0.09363   0.00000  Uiso   1.00
H297   H     0.57490   0.64814   0.09021   0.00000  Uiso   1.00
H298   H     0.49304   0.59199   0.90258   0.00000  Uiso   1.00
H299   H     0.50161   0.65390   0.90220   0.00000  Uiso   1.00
C300   C     0.46183   0.30751  -0.00424   0.00000  Uiso   1.00
C301   C     0.49435   0.34211   0.03569   0.00000  Uiso   1.00
C302   C     0.50199   0.37890   0.03577   0.00000  Uiso   1.00
C303   C     0.47683   0.38175  -0.00284   0.00000  Uiso   1.00
C304   C     0.44381   0.34701   0.95824   0.00000  Uiso   1.00
C305   C     0.43662   0.31011   0.95674   0.00000  Uiso   1.00
C306   C     0.45511   0.26908  -0.00551   0.00000  Uiso   1.00
C307   C     0.45392   0.24620   0.93030   0.00000  Uiso   1.00
C308   C     0.45289   0.21265   0.93095   0.00000  Uiso   1.00
C309   C     0.45241   0.20106  -0.00421   0.00000  Uiso   1.00
C310   C     0.45147   0.22302   0.05931   0.00000  Uiso   1.00
C311   C     0.45329   0.25692   0.05876   0.00000  Uiso   1.00
C312   C     0.45554   0.16808  -0.00181   0.00000  Uiso   1.00
C313   C     0.47649   0.17052   0.05717   0.00000  Uiso   1.00
C314   C     0.48142   0.14097   0.05848   0.00000  Uiso   1.00
C315   C     0.46609   0.10849   0.00044   0.00000  Uiso   1.00
C316   C     0.44468   0.10546   0.94175   0.00000  Uiso   1.00
C317   C     0.43926   0.13486   0.94082   0.00000  Uiso   1.00
H318   H     0.51422   0.34068   0.06580   0.00000  Uiso   1.00
H319   H     0.52755   0.40518   0.06645   0.00000  Uiso   1.00
H320   H     0.42407   0.34846   0.92776   0.00000  Uiso   1.00
H321   H     0.41138   0.28363   0.92561   0.00000  Uiso   1.00
H322   H     0.45565   0.25541   0.88026   0.00000  Uiso   1.00
H323   H     0.45416   0.19691   0.88113   0.00000  Uiso   1.00
H324   H     0.45005   0.21447   0.10991   0.00000  Uiso   1.00
H325   H     0.45395   0.27414   0.10877   0.00000  Uiso   1.00
H326   H     0.49021   0.19593   0.10165   0.00000  Uiso   1.00
H327   H     0.49825   0.14418   0.10423   0.00000  Uiso   1.00
H328   H     0.43238   0.08055   0.89641   0.00000  Uiso   1.00
H329   H     0.42243   0.13161   0.89508   0.00000  Uiso   1.00
loop_
_geom_bond_atom_site_label_1
_geom_bond_atom_site_label_2
_geom_bond_distance
_geom_bond_site_symmetry_2
_ccdc_geom_bond_type
Ce0    O9      2.252   .     S
Ce0    O10     2.281   .     S
Ce0    O19     2.302   .     S
Ce0    O11     2.281   1_554 S
Ce0    O12     2.316   1_554 S
Ce0    O14     2.294   1_554 S
Ce0    O15     2.246   1_554 S
Ce1    O13     2.291   .     S
Ce1    O15     2.238   .     S
Ce1    O16     2.282   .     S
Ce1    O8      2.284   1_556 S
Ce1    O9      2.257   1_556 S
Ce1    O17     2.278   1_556 S
Ce1    O18     2.313   1_556 S
C2     O8      1.226   .     D
C2     O9      1.396   .     S
C2     C63     1.470   .     S
C3     O10     1.278   .     A
C3     C225    1.477   .     S
C3     O11     1.280   1_554 A
C4     O12     1.296   .     A
C4     O13     1.292   .     A
C4     C285    1.471   .     S
C5     O14     1.225   .     D
C5     O15     1.387   .     S
C5     C75     1.468   .     S
C6     O16     1.280   .     A
C6     C153    1.476   .     S
C6     O17     1.281   1_556 A
C7     O18     1.303   .     A
C7     O19     1.301   .     A
C7     C303    1.476   .     S
O8     Ce1     2.284   1_554 S
O9     Ce1     2.257   1_554 S
O11    Ce0     2.281   1_556 S
O11    C3      1.280   1_556 A
O12    Ce0     2.316   1_556 S
O14    Ce0     2.294   1_556 S
O15    Ce0     2.246   1_556 S
O17    Ce1     2.278   1_554 S
O17    C6      1.281   1_554 A
O18    Ce1     2.313   1_554 S
Ce20   O31     2.279   .     S
Ce20   O34     2.279   .     S
Ce20   O35     2.249   .     S
Ce20   O29     2.238   1_554 S
Ce20   O30     2.281   1_554 S
Ce20   O32     2.311   1_455 S
Ce20   O39     2.293   1_554 S
Ce21   O33     2.306   .     S
Ce21   O36     2.278   .     S
Ce21   O28     2.292   1_554 S
Ce21   O29     2.242   1_654 S
Ce21   O35     2.253   1_655 S
Ce21   O37     2.280   1_554 S
Ce21   O38     2.316   1_654 S
C22    O28     1.225   .     D
C22    O29     1.386   1_655 S
C22    C93     1.466   1_655 S
C23    O30     1.279   .     A
C23    O31     1.281   1_556 A
C23    C165    1.476   1_556 S
C24    O32     1.302   .     A
C24    O33     1.302   .     A
C24    C183    1.474   .     S
C25    O34     1.227   .     D
C25    O35     1.396   .     S
C25    C105    1.466   .     S
C26    O36     1.277   .     A
C26    O37     1.280   1_554 A
C26    C213    1.476   1_554 S
C27    O38     1.296   .     A
C27    O39     1.294   .     A
C27    C255    1.484   .     S
O28    Ce21    2.292   1_556 S
O29    Ce20    2.238   1_556 S
O29    Ce21    2.242   1_456 S
O29    C22     1.386   1_455 S
O30    Ce20    2.281   1_556 S
O31    C23     1.281   1_554 A
O32    Ce20    2.311   1_655 S
O35    Ce21    2.253   1_455 S
O37    Ce21    2.280   1_556 S
O37    C26     1.280   1_556 A
O38    Ce21    2.316   1_456 S
O39    Ce20    2.293   1_556 S
Ce40   O51     2.270   .     S
Ce40   O54     2.330   .     S
Ce40   O55     2.277   .     S
Ce40   O59     2.313   .     S
Ce40   O49     2.260   1_566 S
Ce40   O50     2.287   1_556 S
Ce40   O52     2.335   1_565 S
Ce41   O48     2.332   .     S
Ce41   O49     2.283   .     S
Ce41   O53     2.317   .     S
Ce41   O57     2.271   .     S
Ce41   O55     2.259   1_544 S
Ce41   O56     2.286   1_554 S
Ce41   O58     2.335   1_545 S
C42    O48     1.206   .     D
C42    O49     1.373   .     S
C42    C123    1.487   .     S
C43    O51     1.275   .     A
C43    C273    1.477   .     S
C43    O50     1.278   1_556 A
C44    O52     1.306   .     A
C44    C195    1.473   .     S
C44    O53     1.303   1_556 A
C45    O54     1.206   .     D
C45    O55     1.374   .     S
C45    C135    1.485   .     S
C46    O57     1.276   .     A
C46    C315    1.476   .     S
C46    O56     1.278   1_554 A
C47    O58     1.307   .     A
C47    C243    1.480   .     S
C47    O59     1.302   1_554 A
O49    Ce40    2.260   1_544 S
O50    Ce40    2.287   1_554 S
O50    C43     1.278   1_554 A
O52    Ce40    2.335   1_545 S
O53    C44     1.303   1_554 A
O55    Ce41    2.259   1_566 S
O56    Ce41    2.286   1_556 S
O56    C46     1.278   1_556 A
O58    Ce41    2.335   1_565 S
O59    C47     1.302   1_556 A
C60    C61     1.406   .     A
C60    C65     1.404   .     A
C60    C66     1.478   .     S
C61    C62     1.398   .     A
C61    H78     1.083   .     S
C62    C63     1.404   .     A
C62    H79     1.083   .     S
C63    C64     1.402   .     A
C64    C65     1.393   .     A
C64    H80     1.083   .     S
C65    H81     1.083   .     S
C66    C67     1.404   .     A
C66    C71     1.404   .     A
C67    C68     1.395   .     A
C67    H82     1.083   .     S
C68    C69     1.405   .     A
C68    H83     1.083   .     S
C69    C70     1.406   .     A
C69    C72     1.480   .     S
C70    C71     1.396   .     A
C70    H84     1.083   .     S
C71    H85     1.083   .     S
C72    C73     1.404   .     A
C72    C77     1.407   .     A
C73    C74     1.394   .     A
C73    H86     1.083   .     S
C74    C75     1.402   .     A
C74    H87     1.083   .     S
C75    C76     1.402   .     A
C76    C77     1.396   .     A
C76    H88     1.083   .     S
C77    H89     1.083   .     S
C90    C95     1.407   .     A
C90    C96     1.479   .     S
C90    C91     1.404   1_455 A
C91    C92     1.393   .     A
C91    H108    1.083   .     S
C91    C90     1.404   1_655 A
C92    H109    1.083   .     S
C92    C93     1.402   1_655 A
C93    C94     1.402   .     A
C93    C92     1.402   1_455 A
C93    C22     1.466   1_455 S
C94    C95     1.396   .     A
C94    H110    1.083   .     S
C95    H111    1.083   .     S
C96    C97     1.405   .     A
C96    C101    1.406   1_455 A
C97    C98     1.395   .     A
C97    H112    1.083   .     S
C98    C99     1.404   .     A
C98    H113    1.083   .     S
C99    C102    1.476   .     S
C99    C100    1.403   1_455 A
C100   C101    1.394   .     A
C100   H114    1.083   .     S
C100   C99     1.403   1_655 A
C101   H115    1.083   .     S
C101   C96     1.406   1_655 A
C102   C107    1.403   .     A
C102   C103    1.406   1_455 A
C103   C104    1.397   .     A
C103   H116    1.083   .     S
C103   C102    1.406   1_655 A
C104   H117    1.083   .     S
C104   C105    1.403   1_655 A
C105   C106    1.402   .     A
C105   C104    1.403   1_455 A
C106   C107    1.392   .     A
C106   H118    1.083   .     S
C107   H119    1.083   .     S
C120   C125    1.411   .     A
C120   C126    1.501   .     S
C120   C121    1.408   1_545 A
C121   C122    1.401   .     A
C121   H138    1.082   .     S
C121   C120    1.408   1_565 A
C122   H139    1.083   .     S
C122   C123    1.406   1_565 A
C123   C124    1.404   .     A
C123   C122    1.406   1_545 A
C124   C125    1.406   .     A
C124   H140    1.083   .     S
C125   H141    1.082   .     S
C126   C127    1.408   .     A
C126   C131    1.409   1_545 A
C127   C128    1.403   .     A
C127   H142    1.082   .     S
C128   C129    1.409   .     A
C128   H143    1.082   .     S
C129   C130    1.407   1_545 A
C129   C132    1.500   1_545 S
C130   C131    1.403   .     A
C130   H144    1.082   .     S
C130   C129    1.407   1_565 A
C131   H145    1.082   .     S
C131   C126    1.409   1_565 A
C132   C133    1.411   .     A
C132   C129    1.500   1_565 S
C132   C137    1.408   1_565 A
C133   C134    1.405   .     A
C133   H146    1.082   .     S
C134   C135    1.404   .     A
C134   H147    1.083   .     S
C135   C136    1.406   1_565 A
C136   C137    1.401   .     A
C136   H148    1.083   .     S
C136   C135    1.406   1_545 A
C137   H149    1.082   .     S
C137   C132    1.408   1_545 A
C150   C151    1.405   .     A
C150   C156    1.485   .     S
C150   C155    1.407   1_554 A
C151   C152    1.395   .     A
C151   H168    1.083   .     S
C152   H169    1.083   .     S
C152   C153    1.404   1_554 A
C153   C154    1.405   .     A
C153   C152    1.404   1_556 A
C154   C155    1.400   .     A
C154   H170    1.083   .     S
C155   H171    1.083   .     S
C155   C150    1.407   1_556 A
C156   C161    1.406   .     A
C156   C157    1.405   1_554 A
C157   C158    1.396   .     A
C157   H172    1.083   .     S
C157   C156    1.405   1_556 A
C158   H173    1.083   .     S
C158   C159    1.405   1_556 A
C159   C160    1.406   .     A
C159   C162    1.485   .     S
C159   C158    1.405   1_554 A
C160   C161    1.399   .     A
C160   H174    1.083   .     S
C161   H175    1.083   .     S
C162   C163    1.406   .     A
C162   C167    1.406   1_554 A
C163   C164    1.396   .     A
C163   H176    1.083   .     S
C164   C165    1.404   .     A
C164   H177    1.083   .     S
C165   C166    1.405   1_554 A
C165   C23     1.476   1_554 S
C166   C167    1.400   .     A
C166   H178    1.083   .     S
C166   C165    1.405   1_556 A
C167   H179    1.083   .     S
C167   C162    1.406   1_556 A
C180   C181    1.404   .     A
C180   C185    1.403   1_554 A
C180   C186    1.477   1_554 S
C181   C182    1.399   .     A
C181   H198    1.083   .     S
C182   C183    1.405   .     A
C182   H199    1.083   .     S
C183   C184    1.404   1_554 A
C184   C185    1.396   .     A
C184   H200    1.083   .     S
C184   C183    1.404   1_556 A
C185   H201    1.083   .     S
C185   C180    1.403   1_556 A
C186   C187    1.405   .     A
C186   C180    1.477   1_556 S
C186   C191    1.403   1_556 A
C187   C188    1.399   .     A
C187   H202    1.083   .     S
C188   C189    1.403   .     A
C188   H203    1.083   .     S
C189   C192    1.475   .     S
C189   C190    1.403   1_556 A
C190   C191    1.397   .     A
C190   H204    1.083   .     S
C190   C189    1.403   1_554 A
C191   H205    1.083   .     S
C191   C186    1.403   1_554 A
C192   C197    1.404   .     A
C192   C193    1.402   1_556 A
C193   C194    1.394   .     A
C193   H206    1.083   .     S
C193   C192    1.402   1_554 A
C194   H207    1.083   .     S
C194   C195    1.403   1_554 A
C195   C196    1.406   .     A
C195   C194    1.403   1_556 A
C196   C197    1.401   .     A
C196   H208    1.083   .     S
C197   H209    1.083   .     S
C210   C211    1.406   .     A
C210   C216    1.485   .     S
C210   C215    1.406   1_556 A
C211   C212    1.396   .     A
C211   H228    1.083   .     S
C212   C213    1.403   .     A
C212   H229    1.083   .     S
C213   C214    1.405   1_556 A
C213   C26     1.476   1_556 S
C214   C215    1.399   .     A
C214   H230    1.083   .     S
C214   C213    1.405   1_554 A
C215   H231    1.083   .     S
C215   C210    1.406   1_554 A
C216   C221    1.406   .     A
C216   C217    1.406   1_556 A
C217   C218    1.397   .     A
C217   H232    1.083   .     S
C217   C216    1.406   1_554 A
C218   H233    1.083   .     S
C218   C219    1.406   1_554 A
C219   C220    1.406   .     A
C219   C222    1.486   .     S
C219   C218    1.406   1_556 A
C220   C221    1.398   .     A
C220   H234    1.083   .     S
C221   H235    1.083   .     S
C222   C223    1.406   .     A
C222   C227    1.406   1_556 A
C223   C224    1.396   .     A
C223   H236    1.083   .     S
C224   H237    1.083   .     S
C224   C225    1.403   1_556 A
C225   C226    1.405   .     A
C225   C224    1.403   1_554 A
C226   C227    1.400   .     A
C226   H238    1.083   .     S
C227   H239    1.083   .     S
C227   C222    1.406   1_554 A
C240   C245    1.406   .     A
C240   C246    1.483   .     S
C240   C241    1.404   1_554 A
C241   C242    1.392   .     A
C241   H258    1.083   .     S
C241   C240    1.404   1_556 A
C242   H259    1.083   .     S
C242   C243    1.405   1_556 A
C243   C244    1.407   .     A
C243   C242    1.405   1_554 A
C244   C245    1.403   .     A
C244   H260    1.083   .     S
C245   H261    1.083   .     S
C246   C247    1.407   .     A
C246   C251    1.404   1_554 A
C247   C248    1.402   .     A
C247   H262    1.083   .     S
C248   C249    1.406   .     A
C248   H263    1.084   .     S
C249   C250    1.404   1_554 A
C249   C252    1.482   1_554 S
C250   C251    1.393   .     A
C250   H264    1.083   .     S
C250   C249    1.404   1_556 A
C251   H265    1.084   .     S
C251   C246    1.404   1_556 A
C252   C253    1.403   .     A
C252   C249    1.482   1_556 S
C252   C257    1.405   1_556 A
C253   C254    1.392   .     A
C253   H266    1.083   .     S
C254   C255    1.406   .     A
C254   H267    1.083   .     S
C255   C256    1.409   1_556 A
C256   C257    1.403   .     A
C256   H268    1.083   .     S
C256   C255    1.409   1_554 A
C257   H269    1.083   .     S
C257   C252    1.405   1_554 A
C270   C275    1.403   .     A
C270   C276    1.479   .     S
C270   C271    1.404   1_556 A
C271   C272    1.401   .     A
C271   H288    1.083   .     S
C271   C270    1.404   1_554 A
C272   H289    1.083   .     S
C272   C273    1.406   1_554 A
C273   C274    1.404   .     A
C273   C272    1.406   1_556 A
C274   C275    1.395   .     A
C274   H290    1.083   .     S
C275   H291    1.083   .     S
C276   C277    1.402   .     A
C276   C281    1.404   1_556 A
C277   C278    1.393   .     A
C277   H292    1.084   .     S
C278   C279    1.408   .     A
C278   H293    1.082   .     S
C279   C282    1.492   .     S
C279   C280    1.410   1_556 A
C280   C281    1.402   .     A
C280   H294    1.082   .     S
C280   C279    1.410   1_554 A
C281   H295    1.083   .     S
C281   C276    1.404   1_554 A
C282   C287    1.408   .     A
C282   C283    1.410   1_556 A
C283   C284    1.402   .     A
C283   H296    1.082   .     S
C283   C282    1.410   1_554 A
C284   H297    1.083   .     S
C284   C285    1.402   1_554 A
C285   C286    1.401   .     A
C285   C284    1.402   1_556 A
C286   C287    1.394   .     A
C286   H298    1.084   .     S
C287   H299    1.082   .     S
C300   C301    1.402   .     A
C300   C306    1.475   .     S
C300   C305    1.404   1_554 A
C301   C302    1.394   .     A
C301   H318    1.083   .     S
C302   C303    1.404   .     A
C302   H319    1.083   .     S
C303   C304    1.406   1_554 A
C304   C305    1.402   .     A
C304   H320    1.083   .     S
C304   C303    1.406   1_556 A
C305   H321    1.083   .     S
C305   C300    1.404   1_556 A
C306   C311    1.401   .     A
C306   C307    1.402   1_554 A
C307   C308    1.400   .     A
C307   H322    1.083   .     S
C307   C306    1.402   1_556 A
C308   H323    1.082   .     S
C308   C309    1.409   1_556 A
C309   C310    1.408   .     A
C309   C312    1.491   .     S
C309   C308    1.409   1_554 A
C310   C311    1.396   .     A
C310   H324    1.082   .     S
C311   H325    1.083   .     S
C312   C313    1.407   .     A
C312   C317    1.409   1_554 A
C313   C314    1.394   .     A
C313   H326    1.082   .     S
C314   C315    1.402   .     A
C314   H327    1.083   .     S
C315   C316    1.404   1_554 A
C316   C317    1.401   .     A
C316   H328    1.083   .     S
C316   C315    1.404   1_556 A
C317   H329    1.082   .     S
C317   C312    1.409   1_556 A
