data_kag+N144+E28
_audit_creation_date              2025-01-21
_audit_creation_method            'Materials Studio'
_symmetry_space_group_name_H-M    'P1'
_symmetry_Int_Tables_number       1
_symmetry_cell_setting            triclinic
loop_
_symmetry_equiv_pos_as_xyz
  x,y,z
_cell_length_a                    41.4630
_cell_length_b                    40.9431
_cell_length_c                    19.9166
_cell_angle_alpha                 91.3790
_cell_angle_beta                  94.0495
_cell_angle_gamma                 121.9917
loop_
_atom_site_label
_atom_site_type_symbol
_atom_site_fract_x
_atom_site_fract_y
_atom_site_fract_z
_atom_site_U_iso_or_equiv
_atom_site_adp_type
_atom_site_occupancy
C0     C     0.63883   0.56930   0.95398   0.00000  Uiso   1.00
Er1    Er    0.50234   0.53477  -0.01898   0.00000  Uiso   1.00
Er2    Er    0.56701   0.56470  -0.00907   0.00000  Uiso   1.00
C3     C     0.54390   0.62319  -0.01393   0.00000  Uiso   1.00
O4     O     0.56325   0.56403   0.88135   0.00000  Uiso   1.00
C5     C     0.53681   0.55152   0.12746   0.00000  Uiso   1.00
C6     C     0.52846   0.47792  -0.01845   0.00000  Uiso   1.00
C7     C     0.43762   0.53264   0.97992   0.00000  Uiso   1.00
O8     O     0.61747   0.55225   0.90319   0.00000  Uiso   1.00
O9     O     0.63021   0.59026   0.99773   0.00000  Uiso   1.00
O10    O     0.56111   0.50874  -0.01165   0.00000  Uiso   1.00
O11    O     0.49893   0.47993  -0.02225   0.00000  Uiso   1.00
O12    O     0.56797   0.56536   0.10022   0.00000  Uiso   1.00
O13    O     0.50534   0.53678   0.09042   0.00000  Uiso   1.00
C14    C     0.53171   0.54914   0.84453   0.00000  Uiso   1.00
O15    O     0.50052   0.53379   0.87186   0.00000  Uiso   1.00
O16    O     0.57333   0.62081  -0.00686   0.00000  Uiso   1.00
O17    O     0.51051   0.59238  -0.01771   0.00000  Uiso   1.00
O18    O     0.44026   0.50342   0.97751   0.00000  Uiso   1.00
O19    O     0.47012   0.56381   0.98088   0.00000  Uiso   1.00
C20    C     0.97006   0.41377   0.95243   0.00000  Uiso   1.00
Er21   Er    0.04157   0.55186   0.05236   0.00000  Uiso   1.00
Er22   Er    1.00334   0.48626   0.04112   0.00000  Uiso   1.00
C23    C     0.08742   0.51418   0.04361   0.00000  Uiso   1.00
O24    O     0.00171   0.49118   0.93181   0.00000  Uiso   1.00
C25    C     0.02410   0.51507   0.18747   0.00000  Uiso   1.00
C26    C     0.95842   0.52573   0.04590   0.00000  Uiso   1.00
C27    C     0.08521   0.62309   1.01729   0.00000  Uiso   1.00
O28    O     0.99642   0.40857   0.95823   0.00000  Uiso   1.00
O29    O     0.97808   0.45098   0.94362   0.00000  Uiso   1.00
O30    O     0.95430   0.49252   0.04296   0.00000  Uiso   1.00
O31    O    -0.00827   0.55602   0.04967   0.00000  Uiso   1.00
O32    O     0.00629   0.48399   0.15005   0.00000  Uiso   1.00
O33    O     0.04084   0.54695   0.16049   0.00000  Uiso   1.00
C34    C     0.02081   0.52332   0.90489   0.00000  Uiso   1.00
O35    O     0.04084   0.55457   0.94265   0.00000  Uiso   1.00
O36    O     0.05436   0.48326   0.03838   0.00000  Uiso   1.00
O37    O     0.09076   0.54664   0.05356   0.00000  Uiso   1.00
O38    O     0.07846   0.61352   1.07645   0.00000  Uiso   1.00
O39    O     0.06674   0.59416   0.97454   0.00000  Uiso   1.00
C40    C     0.47617   0.10396   0.96920   0.00000  Uiso   1.00
Er41   Er    0.52955   1.01508   0.03183   0.00000  Uiso   1.00
Er42   Er    0.50629   0.05376   0.02709   0.00000  Uiso   1.00
C43    C     0.44307   0.96993   0.02284   0.00000  Uiso   1.00
O44    O     0.50607   0.05175   0.91823   0.00000  Uiso   1.00
C45    C     0.52081   0.04029   0.17094   0.00000  Uiso   1.00
C46    C     0.59278   0.09885   0.03257   0.00000  Uiso   1.00
C47    C     0.54966   0.96886   0.98248   0.00000  Uiso   1.00
O48    O     0.46168   0.08065   0.92038   0.00000  Uiso   1.00
O49    O     0.48526   0.09365   1.03042   0.00000  Uiso   1.00
O50    O     0.56473   0.10331   0.03510   0.00000  Uiso   1.00
O51    O     0.58686   0.06498   0.03035   0.00000  Uiso   1.00
O52    O     0.50620   0.05563   0.13618   0.00000  Uiso   1.00
O53    O     0.53421   0.02307   0.14099   0.00000  Uiso   1.00
C54    C     0.51406   0.02986   0.88713   0.00000  Uiso   1.00
O55    O     0.52392   0.00976   0.92085   0.00000  Uiso   1.00
O56    O     0.44855   0.00336   0.01712   0.00000  Uiso   1.00
O57    O     0.47152   0.96606   0.03265   0.00000  Uiso   1.00
O58    O     0.53640   0.98483   0.94565   0.00000  Uiso   1.00
O59    O     0.55271   0.97851   1.04408   0.00000  Uiso   1.00
C60    C     0.53552   0.55317   0.34359   0.00000  Uiso   1.00
C61    C     0.57011   0.56768   0.31437   0.00000  Uiso   1.00
C62    C     0.57067   0.56729   0.24423   0.00000  Uiso   1.00
C63    C     0.53666   0.55245   0.20178   0.00000  Uiso   1.00
C64    C     0.50214   0.53830   0.23097   0.00000  Uiso   1.00
C65    C     0.50158   0.53869   0.30099   0.00000  Uiso   1.00
C66    C     0.53476   0.55252   0.41790   0.00000  Uiso   1.00
N67    N     0.50137   0.53829   0.44626   0.00000  Uiso   1.00
N68    N     0.50068   0.53752   0.51299   0.00000  Uiso   1.00
C69    C     0.53334   0.55090   0.55427   0.00000  Uiso   1.00
N70    N     0.56672   0.56510   0.52588   0.00000  Uiso   1.00
N71    N     0.56741   0.56588   0.45920   0.00000  Uiso   1.00
C72    C     0.53272   0.55043   0.62860   0.00000  Uiso   1.00
C73    C     0.56666   0.56419   0.67083   0.00000  Uiso   1.00
C74    C     0.56625   0.56400   0.74082   0.00000  Uiso   1.00
C75    C     0.53185   0.54980   0.77035   0.00000  Uiso   1.00
C76    C     0.49789   0.53615   0.72836   0.00000  Uiso   1.00
C77    C     0.49832   0.53643   0.65821   0.00000  Uiso   1.00
H78    H     0.59681   0.57920   0.34566   0.00000  Uiso   1.00
H79    H     0.59770   0.57845   0.22329   0.00000  Uiso   1.00
H80    H     0.47542   0.52679   0.19968   0.00000  Uiso   1.00
H81    H     0.47446   0.52743   0.32164   0.00000  Uiso   1.00
H82    H     0.59366   0.57506   0.64989   0.00000  Uiso   1.00
H83    H     0.59297   0.57490   0.77180   0.00000  Uiso   1.00
H84    H     0.47101   0.52534   0.74970   0.00000  Uiso   1.00
H85    H     0.47165   0.52564   0.62721   0.00000  Uiso   1.00
C86    C     0.02090   0.52237   0.68841   0.00000  Uiso   1.00
C87    C    -0.00193   0.48821   0.71998   0.00000  Uiso   1.00
C88    C    -0.00237   0.48880   0.78995   0.00000  Uiso   1.00
C89    C     0.01996   0.52360   0.83036   0.00000  Uiso   1.00
C90    C     0.04217   0.55800   0.79886   0.00000  Uiso   1.00
C91    C     0.04260   0.55740   0.72856   0.00000  Uiso   1.00
C92    C     0.02233   0.52105   0.61422   0.00000  Uiso   1.00
N93    N     0.04434   0.55371   0.58270   0.00000  Uiso   1.00
N94    N     0.04569   0.55224   0.51612   0.00000  Uiso   1.00
C95    C     0.02518   0.51806   0.47823   0.00000  Uiso   1.00
N96    N     0.00328   0.48541   0.50980   0.00000  Uiso   1.00
N97    N     0.00193   0.48688   0.57633   0.00000  Uiso   1.00
C98    C     0.02599   0.51662   0.40392   0.00000  Uiso   1.00
C99    C     0.00423   0.48140   0.36426   0.00000  Uiso   1.00
C100   C     0.00389   0.48053   0.29386   0.00000  Uiso   1.00
C101   C     0.02533   0.51488   0.26185   0.00000  Uiso   1.00
C102   C     0.04756   0.54989   0.30162   0.00000  Uiso   1.00
C103   C     0.04794   0.55075   0.37169   0.00000  Uiso   1.00
H104   H    -0.01926   0.46076   0.69073   0.00000  Uiso   1.00
H105   H    -0.01996   0.46174   0.81226   0.00000  Uiso   1.00
H106   H     0.05962   0.58530   0.82850   0.00000  Uiso   1.00
H107   H     0.06026   0.58432   0.70581   0.00000  Uiso   1.00
H108   H    -0.01290   0.45452   0.38749   0.00000  Uiso   1.00
H109   H    -0.01353   0.45310   0.26455   0.00000  Uiso   1.00
H110   H     0.06453   0.57685   0.27851   0.00000  Uiso   1.00
H111   H     0.06516   0.57835   0.40048   0.00000  Uiso   1.00
C112   C     0.52127   0.04061   0.38734   0.00000  Uiso   1.00
C113   C     0.53839   1.02431   0.35273   0.00000  Uiso   1.00
C114   C     0.53869   1.02484   0.28274   0.00000  Uiso   1.00
C115   C     0.52190   0.04170   0.24546   0.00000  Uiso   1.00
C116   C     0.50541   0.05873   0.27994   0.00000  Uiso   1.00
C117   C     0.50520   0.05830   0.35020   0.00000  Uiso   1.00
C118   C     0.51938   0.03817   0.46135   0.00000  Uiso   1.00
N119   N     0.50318   0.05401   0.49561   0.00000  Uiso   1.00
N120   N     0.50080   0.05101   0.56177   0.00000  Uiso   1.00
C121   C     0.51439   0.03188   0.59659   0.00000  Uiso   1.00
N122   N     0.53069   1.01614   0.56236   0.00000  Uiso   1.00
N123   N     0.53309   1.01917   0.49622   0.00000  Uiso   1.00
C124   C     0.51232   0.02922   0.67054   0.00000  Uiso   1.00
C125   C     0.52593   1.00908   0.70677   0.00000  Uiso   1.00
C126   C     0.52589   1.00858   0.77706   0.00000  Uiso   1.00
C127   C     0.51230   0.02824   0.81252   0.00000  Uiso   1.00
C128   C     0.49772   0.04739   0.77608   0.00000  Uiso   1.00
C129   C     0.49755   0.04770   0.70600   0.00000  Uiso   1.00
H130   H     0.55129   1.01071   0.37958   0.00000  Uiso   1.00
H131   H     0.55181   1.01164   0.25775   0.00000  Uiso   1.00
H132   H     0.49230   0.07200   0.25257   0.00000  Uiso   1.00
H133   H     0.49201   0.07140   0.37524   0.00000  Uiso   1.00
H134   H     0.53709   0.99411   0.68100   0.00000  Uiso   1.00
H135   H     0.53713   0.99338   0.80364   0.00000  Uiso   1.00
H136   H     0.48671   0.06251   0.80180   0.00000  Uiso   1.00
H137   H     0.48634   0.06302   0.67978   0.00000  Uiso   1.00
C138   C     0.32994   0.52376   0.98966   0.00000  Uiso   1.00
C139   C     0.36231   0.55859   0.97387   0.00000  Uiso   1.00
C140   C     0.39750   0.56176   0.97097   0.00000  Uiso   1.00
C141   C     0.40092   0.53011   0.98312   0.00000  Uiso   1.00
C142   C     0.36875   0.49542  -0.00089   0.00000  Uiso   1.00
C143   C     0.33372   0.49231   0.00266   0.00000  Uiso   1.00
C144   C     0.29268   0.52041   0.99343   0.00000  Uiso   1.00
N145   N     0.26174   0.48742   0.01158   0.00000  Uiso   1.00
N146   N     0.22865   0.48495   0.01671   0.00000  Uiso   1.00
C147   C     0.22499   0.51532   1.00380   0.00000  Uiso   1.00
N148   N     0.25582   0.54810   0.98491   0.00000  Uiso   1.00
N149   N     0.28883   0.55058   0.97986   0.00000  Uiso   1.00
C150   C     0.18896   0.51379   0.01268   0.00000  Uiso   1.00
C151   C     0.18646   0.54598   0.99977   0.00000  Uiso   1.00
C152   C     0.15373   0.54598   1.01142   0.00000  Uiso   1.00
C153   C     0.12214   0.51346   0.03472   0.00000  Uiso   1.00
C154   C     0.12403   0.48081   0.04652   0.00000  Uiso   1.00
C155   C     0.15723   0.48100   0.03573   0.00000  Uiso   1.00
H156   H     0.36053   0.58348   0.96375   0.00000  Uiso   1.00
H157   H     0.42187   0.58880   0.95868   0.00000  Uiso   1.00
H158   H     0.37077   0.47070   0.00972   0.00000  Uiso   1.00
H159   H     0.30962   0.46522   0.01564   0.00000  Uiso   1.00
H160   H     0.20988   0.57145   0.98074   0.00000  Uiso   1.00
H161   H     0.15290   0.57136   1.00079   0.00000  Uiso   1.00
H162   H     0.10010   0.45539   0.06467   0.00000  Uiso   1.00
H163   H     0.15807   0.45559   0.04578   0.00000  Uiso   1.00
C164   C     0.85523   0.32018   0.97290   0.00000  Uiso   1.00
C165   C     0.88606   0.31487   0.98099   0.00000  Uiso   1.00
C166   C     0.92316   0.34513   0.97357   0.00000  Uiso   1.00
C167   C     0.93044   0.38155   0.95794   0.00000  Uiso   1.00
C168   C     0.89971   0.38701   0.94941   0.00000  Uiso   1.00
C169   C     0.86241   0.35657   0.95659   0.00000  Uiso   1.00
C170   C     0.81603   0.28781   0.98210   0.00000  Uiso   1.00
N171   N     0.78592   0.29250  -0.02259   0.00000  Uiso   1.00
N172   N     0.75090   0.26326  -0.01325   0.00000  Uiso   1.00
C173   C     0.74465   0.22820   1.00114   0.00000  Uiso   1.00
N174   N     0.77477   0.22352   1.00538   0.00000  Uiso   1.00
N175   N     0.80966   0.25267   0.99614   0.00000  Uiso   1.00
C176   C     0.70592   0.19559   0.01215   0.00000  Uiso   1.00
C177   C     0.69960   0.15888   1.02277   0.00000  Uiso   1.00
C178   C     0.66306   0.12780   1.03135   0.00000  Uiso   1.00
C179   C     0.63192   0.13263   0.02963   0.00000  Uiso   1.00
C180   C     0.63835   0.16956   0.02119   0.00000  Uiso   1.00
C181   C     0.67496   0.20070   0.01238   0.00000  Uiso   1.00
H182   H     0.88166   0.28727   0.99339   0.00000  Uiso   1.00
H183   H     0.94623   0.34005   0.98073   0.00000  Uiso   1.00
H184   H     0.90445   0.41479  -0.06268   0.00000  Uiso   1.00
H185   H     0.83927   0.36158  -0.05061   0.00000  Uiso   1.00
H186   H     0.72282   0.15393   1.02375   0.00000  Uiso   1.00
H187   H     0.65914   0.09984   1.03862   0.00000  Uiso   1.00
H188   H     0.61499   0.17429   0.02018   0.00000  Uiso   1.00
H189   H     0.67894   0.22870   0.00532   0.00000  Uiso   1.00
C190   C     0.86151   0.53829   1.03245   0.00000  Uiso   1.00
C191   C     0.85647   0.50175   0.02066   0.00000  Uiso   1.00
C192   C     0.88778   0.49738   0.02650   0.00000  Uiso   1.00
C193   C     0.92482   0.52951   0.04382   0.00000  Uiso   1.00
C194   C     0.92978   0.56588   0.05687   0.00000  Uiso   1.00
C195   C     0.89849   0.57020   0.05153   0.00000  Uiso   1.00
C196   C     0.82850   0.54318   1.02374   0.00000  Uiso   1.00
N197   N     0.83223   0.57727   1.04249   0.00000  Uiso   1.00
N198   N     0.80259   0.58168   1.03380   0.00000  Uiso   1.00
C199   C     0.76805   0.55220   1.00568   0.00000  Uiso   1.00
N200   N     0.76440   0.51820   0.98678   0.00000  Uiso   1.00
N201   N     0.79395   0.51375   0.99574   0.00000  Uiso   1.00
C202   C     0.73511   0.55698   0.99418   0.00000  Uiso   1.00
C203   C     0.70344   0.53049   0.94960   0.00000  Uiso   1.00
C204   C     0.67252   0.53486   0.93695   0.00000  Uiso   1.00
C205   C     0.67216   0.56561   0.96903   0.00000  Uiso   1.00
C206   C     0.70337   0.59179   1.01476   0.00000  Uiso   1.00
C207   C     0.73478   0.58770   1.02685   0.00000  Uiso   1.00
H208   H     0.82835   0.47649   0.00635   0.00000  Uiso   1.00
H209   H     0.88308   0.46901   0.01616   0.00000  Uiso   1.00
H210   H     0.95796   0.59117   0.07074   0.00000  Uiso   1.00
H211   H     0.90344   0.59872   1.06122   0.00000  Uiso   1.00
H212   H     0.70266   0.50651   0.92359   0.00000  Uiso   1.00
H213   H     0.64864   0.51384   0.90213   0.00000  Uiso   1.00
H214   H     0.70371   0.61561   1.04039   0.00000  Uiso   1.00
H215   H     0.75869   0.60843   1.06189   0.00000  Uiso   1.00
C216   C     0.32962   0.86910   0.00528   0.00000  Uiso   1.00
C217   C     0.33678   0.90262   0.97503   0.00000  Uiso   1.00
C218   C     0.37358   0.93581   0.98191   0.00000  Uiso   1.00
C219   C     0.40392   0.93556   0.01759   0.00000  Uiso   1.00
C220   C     0.39674   0.90186   0.04725   0.00000  Uiso   1.00
C221   C     0.35981   0.86911   0.04193   0.00000  Uiso   1.00
C222   C     0.29068   0.83451   0.00088   0.00000  Uiso   1.00
N223   N     0.27814   0.81361   0.05538   0.00000  Uiso   1.00
N224   N     0.24304   0.78236   0.05234   0.00000  Uiso   1.00
C225   C     0.21923   0.77052   0.99448   0.00000  Uiso   1.00
N226   N     0.23181   0.79121   0.93954   0.00000  Uiso   1.00
N227   N     0.26688   0.82288   0.94286   0.00000  Uiso   1.00
C228   C     0.18067   0.73546   0.99290   0.00000  Uiso   1.00
C229   C     0.16439   0.70802   0.93717   0.00000  Uiso   1.00
C230   C     0.13118   0.67169   0.94241   0.00000  Uiso   1.00
C231   C     0.11391   0.66295   1.00313   0.00000  Uiso   1.00
C232   C     0.12849   0.69176   0.05621   0.00000  Uiso   1.00
C233   C     0.16162   0.72745   0.05134   0.00000  Uiso   1.00
H234   H     0.31377   0.90341   0.94746   0.00000  Uiso   1.00
H235   H     0.37844   0.96149   0.95864   0.00000  Uiso   1.00
H236   H     0.41962   0.90102   0.07528   0.00000  Uiso   1.00
H237   H     0.35493   0.84360   0.06589   0.00000  Uiso   1.00
H238   H     0.17864   0.71367   0.89147   0.00000  Uiso   1.00
H239   H     0.12061   0.64977   0.90101   0.00000  Uiso   1.00
H240   H     0.11555   0.68589   0.10337   0.00000  Uiso   1.00
H241   H     0.17329   0.74828   0.09462   0.00000  Uiso   1.00
C242   C     0.56506   0.87593   0.93835   0.00000  Uiso   1.00
C243   C     0.59157   0.90716  -0.01627   0.00000  Uiso   1.00
C244   C     0.58809   0.93893  -0.00566   0.00000  Uiso   1.00
C245   C     0.55865   0.94056   0.95871   0.00000  Uiso   1.00
C246   C     0.53435   0.91132   0.90865   0.00000  Uiso   1.00
C247   C     0.53730   0.87899   0.89896   0.00000  Uiso   1.00
C248   C     0.56414   0.83921   0.93746   0.00000  Uiso   1.00
N249   N     0.53204   0.80552   0.91284   0.00000  Uiso   1.00
N250   N     0.52967   0.77197   0.91840   0.00000  Uiso   1.00
C251   C     0.55931   0.77061   0.94872   0.00000  Uiso   1.00
N252   N     0.59165   0.80435  -0.02757   0.00000  Uiso   1.00
N253   N     0.59394   0.83787  -0.03278   0.00000  Uiso   1.00
C254   C     0.55571   0.73303  -0.04157   0.00000  Uiso   1.00
C255   C     0.58807   0.73108  -0.02385   0.00000  Uiso   1.00
C256   C     0.58428   0.69551  -0.01383   0.00000  Uiso   1.00
C257   C     0.54804   0.66119  -0.02063   0.00000  Uiso   1.00
C258   C     0.51578   0.66324   0.96178   0.00000  Uiso   1.00
C259   C     0.51955   0.69865   0.95127   0.00000  Uiso   1.00
H260   H     0.61360   0.90606   0.01425   0.00000  Uiso   1.00
H261   H     0.60738   0.96149   0.03272   0.00000  Uiso   1.00
H262   H     0.51140   0.91208   0.88072   0.00000  Uiso   1.00
H263   H     0.51685   0.85570   0.86274   0.00000  Uiso   1.00
H264   H     0.61639   0.75698  -0.01853   0.00000  Uiso   1.00
H265   H     0.60976   0.69484  -0.00134   0.00000  Uiso   1.00
H266   H     0.48754   0.63737   0.95507   0.00000  Uiso   1.00
H267   H     0.49401   0.69907   0.93787   0.00000  Uiso   1.00
C268   C     0.51683   0.36703  -0.02919   0.00000  Uiso   1.00
C269   C     0.55145   0.40016  -0.00231   0.00000  Uiso   1.00
C270   C     0.55548   0.43635   0.00041   0.00000  Uiso   1.00
C271   C     0.52473   0.43997  -0.02236   0.00000  Uiso   1.00
C272   C     0.49025   0.40694   0.95070   0.00000  Uiso   1.00
C273   C     0.48642   0.37094   0.94691   0.00000  Uiso   1.00
C274   C     0.51217   0.32854   0.96784   0.00000  Uiso   1.00
N275   N     0.48211   0.29827   0.92981   0.00000  Uiso   1.00
N276   N     0.47748   0.26353   0.92760   0.00000  Uiso   1.00
C277   C     0.50269   0.25741   0.96348   0.00000  Uiso   1.00
N278   N     0.53276   0.28766   0.00156   0.00000  Uiso   1.00
N279   N     0.53746   0.32248   0.00360   0.00000  Uiso   1.00
C280   C     0.49681   0.21841   0.96267   0.00000  Uiso   1.00
C281   C     0.51706   0.20999   1.01139   0.00000  Uiso   1.00
C282   C     0.51009   0.17274   1.01312   0.00000  Uiso   1.00
C283   C     0.48326   0.14320   0.96548   0.00000  Uiso   1.00
C284   C     0.46369   0.15168   0.91549   0.00000  Uiso   1.00
C285   C     0.47026   0.18891   0.91434   0.00000  Uiso   1.00
H286   H     0.57550   0.39819   0.01632   0.00000  Uiso   1.00
H287   H     0.58248   0.46142   0.02110   0.00000  Uiso   1.00
H288   H     0.46626   0.40898   0.93197   0.00000  Uiso   1.00
H289   H     0.45940   0.34608   0.92582   0.00000  Uiso   1.00
H290   H     0.53792   0.23203   0.04898   0.00000  Uiso   1.00
H291   H     0.52595   0.16711   0.05168   0.00000  Uiso   1.00
H292   H     0.44283   0.12941   0.87817   0.00000  Uiso   1.00
H293   H     0.45457   0.19459   0.87554   0.00000  Uiso   1.00
loop_
_geom_bond_atom_site_label_1
_geom_bond_atom_site_label_2
_geom_bond_distance
_geom_bond_site_symmetry_2
_ccdc_geom_bond_type
C0     O8      1.216   .     D
C0     O9      1.399   .     S
C0     C205    1.479   .     S
Er1    O11     2.173   .     S
Er1    O13     2.171   .     S
Er1    O17     2.197   .     S
Er1    O15     2.169   1_554 S
Er1    O18     2.179   1_554 S
Er1    O19     2.209   1_554 S
Er2    O10     2.170   .     S
Er2    O12     2.174   .     S
Er2    O16     2.169   .     S
Er2    O4      2.175   1_554 S
Er2    O9      2.240   1_554 S
C3     O16     1.273   .     A
C3     O17     1.282   .     A
C3     C257    1.482   .     S
O4     C14     1.272   .     A
O4     Er2     2.175   1_556 S
C5     O12     1.274   .     A
C5     O13     1.272   .     A
C5     C63     1.480   .     S
C6     O10     1.265   .     A
C6     O11     1.267   .     A
C6     C271    1.477   .     S
C7     O18     1.258   .     A
C7     O19     1.272   .     A
C7     C141    1.475   .     S
O9     Er2     2.240   1_556 S
C14    O15     1.272   .     A
C14    C75     1.479   .     S
O15    Er1     2.169   1_556 S
O18    Er1     2.179   1_556 S
O19    Er1     2.209   1_556 S
C20    O28     1.218   .     D
C20    O29     1.395   .     S
C20    C167    1.479   .     S
Er21   O31     2.159   .     S
Er21   O33     2.169   .     S
Er21   O37     2.159   .     S
Er21   O35     2.189   1_554 S
Er21   O38     2.166   1_554 S
Er21   O39     2.221   1_554 S
Er22   O30     2.183   .     S
Er22   O24     2.191   1_654 S
Er22   O29     2.220   1_554 S
Er22   O32     2.171   1_655 S
Er22   O36     2.188   1_655 S
C23    O36     1.276   .     A
C23    O37     1.270   .     A
C23    C153    1.479   .     S
O24    C34     1.279   .     A
O24    Er22    2.191   1_456 S
C25    O32     1.265   .     A
C25    O33     1.265   .     A
C25    C101    1.479   .     S
C26    O30     1.277   .     A
C26    C193    1.479   .     S
C26    O31     1.272   1_655 A
C27    O38     1.254   .     A
C27    O39     1.270   .     A
C27    C231    1.473   .     S
O29    Er22    2.220   1_556 S
O31    C26     1.272   1_455 A
O32    Er22    2.171   1_455 S
C34    O35     1.277   .     A
C34    C89     1.483   .     S
O35    Er21    2.189   1_556 S
O36    Er22    2.188   1_455 S
O38    Er21    2.166   1_556 S
O39    Er21    2.221   1_556 S
C40    O48     1.218   .     D
C40    O49     1.391   .     S
C40    C283    1.477   .     S
Er41   O57     2.170   .     S
Er41   O51     2.166   1_565 S
Er41   O53     2.171   1_565 S
Er41   O55     2.199   1_564 S
Er41   O58     2.213   1_554 S
Er41   O59     2.175   1_554 S
Er42   O50     2.176   .     S
Er42   O52     2.173   .     S
Er42   O56     2.170   .     S
Er42   O44     2.167   1_554 S
Er42   O49     2.224   1_554 S
C43    O57     1.273   .     A
C43    C219    1.475   .     S
C43    O56     1.273   1_565 A
O44    C54     1.270   .     A
O44    Er42    2.167   1_556 S
C45    O52     1.267   .     A
C45    O53     1.266   .     A
C45    C115    1.480   .     S
C46    O50     1.274   .     A
C46    O51     1.273   .     A
C46    C179    1.480   .     S
C47    O58     1.271   .     A
C47    O59     1.257   .     A
C47    C245    1.470   .     S
O49    Er42    2.224   1_556 S
O51    Er41    2.166   1_545 S
O53    Er41    2.171   1_545 S
C54    O55     1.281   .     A
C54    C127    1.481   .     S
O55    Er41    2.199   1_546 S
O56    C43     1.273   1_545 A
O58    Er41    2.213   1_556 S
O59    Er41    2.175   1_556 S
C60    C61     1.407   .     A
C60    C65     1.405   .     A
C60    C66     1.483   .     S
C61    C62     1.399   .     A
C61    H78     1.082   .     S
C62    C63     1.404   .     A
C62    H79     1.082   .     S
C63    C64     1.406   .     A
C64    C65     1.396   .     A
C64    H80     1.083   .     S
C65    H81     1.083   .     S
C66    N67     1.359   .     A
C66    N71     1.358   .     A
N67    N68     1.332   .     A
N68    C69     1.358   .     A
C69    N70     1.359   .     A
C69    C72     1.483   .     S
N70    N71     1.331   .     A
C72    C73     1.405   .     A
C72    C77     1.407   .     A
C73    C74     1.396   .     A
C73    H82     1.082   .     S
C74    C75     1.405   .     A
C74    H83     1.083   .     S
C75    C76     1.404   .     A
C76    C77     1.399   .     A
C76    H84     1.083   .     S
C77    H85     1.082   .     S
C86    C87     1.404   .     A
C86    C91     1.408   .     A
C86    C92     1.484   .     S
C87    C88     1.395   .     A
C87    H104    1.083   .     S
C88    C89     1.406   .     A
C88    H105    1.082   .     S
C89    C90     1.405   .     A
C90    C91     1.401   .     A
C90    H106    1.083   .     S
C91    H107    1.083   .     S
C92    N93     1.358   .     A
C92    N97     1.359   .     A
N93    N94     1.332   .     A
N94    C95     1.360   .     A
C95    N96     1.357   .     A
C95    C98     1.483   .     S
N96    N97     1.332   .     A
C98    C99     1.408   .     A
C98    C103    1.404   .     A
C99    C100    1.401   .     A
C99    H108    1.083   .     S
C100   C101    1.405   .     A
C100   H109    1.083   .     S
C101   C102    1.405   .     A
C102   C103    1.394   .     A
C102   H110    1.083   .     S
C103   H111    1.082   .     S
C112   C117    1.408   .     A
C112   C118    1.485   .     S
C112   C113    1.405   1_545 A
C113   C114    1.395   .     A
C113   H130    1.082   .     S
C113   C112    1.405   1_565 A
C114   H131    1.083   .     S
C114   C115    1.405   1_565 A
C115   C116    1.405   .     A
C115   C114    1.405   1_545 A
C116   C117    1.401   .     A
C116   H132    1.083   .     S
C117   H133    1.082   .     S
C118   N119    1.357   .     A
C118   N123    1.360   1_545 A
N119   N120    1.332   .     A
N120   C121    1.361   .     A
C121   C124    1.485   .     S
C121   N122    1.357   1_545 A
N122   N123    1.332   .     A
N122   C121    1.357   1_565 A
N123   C118    1.360   1_565 A
C124   C129    1.405   .     A
C124   C125    1.408   1_545 A
C125   C126    1.401   .     A
C125   H134    1.083   .     S
C125   C124    1.408   1_565 A
C126   H135    1.083   .     S
C126   C127    1.405   1_565 A
C127   C128    1.405   .     A
C127   C126    1.405   1_545 A
C128   C129    1.396   .     A
C128   H136    1.082   .     S
C129   H137    1.083   .     S
C138   C139    1.410   .     A
C138   C144    1.485   .     S
C138   C143    1.405   1_556 A
C139   C140    1.400   .     A
C139   H156    1.083   .     S
C140   C141    1.401   .     A
C140   H157    1.081   .     S
C141   C142    1.404   1_556 A
C142   C143    1.397   .     A
C142   H158    1.083   .     S
C142   C141    1.404   1_554 A
C143   H159    1.082   .     S
C143   C138    1.405   1_554 A
C144   N149    1.357   .     A
C144   N145    1.361   1_556 A
N145   N146    1.333   .     A
N145   C144    1.361   1_554 A
N146   C147    1.358   1_554 A
C147   N148    1.361   .     A
C147   N146    1.358   1_556 A
C147   C150    1.485   1_556 S
N148   N149    1.329   .     A
C150   C155    1.410   .     A
C150   C147    1.485   1_554 S
C150   C151    1.404   1_554 A
C151   C152    1.393   .     A
C151   H160    1.083   .     S
C151   C150    1.404   1_556 A
C152   H161    1.083   .     S
C152   C153    1.404   1_556 A
C153   C154    1.404   .     A
C153   C152    1.404   1_554 A
C154   C155    1.404   .     A
C154   H162    1.083   .     S
C155   H163    1.082   .     S
C164   C165    1.405   .     A
C164   C169    1.408   .     A
C164   C170    1.484   .     S
C165   C166    1.394   .     A
C165   H182    1.083   .     S
C166   C167    1.404   .     A
C166   H183    1.082   .     S
C167   C168    1.406   .     A
C168   C169    1.401   .     A
C168   H184    1.083   1_556 S
C169   H185    1.083   1_556 S
C170   N175    1.359   .     A
C170   N171    1.358   1_556 A
N171   N172    1.335   .     A
N171   C170    1.358   1_554 A
N172   C173    1.359   1_554 A
C173   N174    1.357   .     A
C173   N172    1.359   1_556 A
C173   C176    1.484   1_556 S
N174   N175    1.330   .     A
C176   C181    1.406   .     A
C176   C173    1.484   1_554 S
C176   C177    1.406   1_554 A
C177   C178    1.396   .     A
C177   H186    1.083   .     S
C177   C176    1.406   1_556 A
C178   H187    1.083   .     S
C178   C179    1.404   1_556 A
C179   C180    1.406   .     A
C179   C178    1.404   1_554 A
C180   C181    1.399   .     A
C180   H188    1.083   .     S
C181   H189    1.083   .     S
H184   C168    1.083   1_554 S
H185   C169    1.083   1_554 S
C190   C196    1.484   .     S
C190   C191    1.408   1_556 A
C190   C195    1.405   1_556 A
C191   C192    1.399   .     A
C191   H208    1.082   .     S
C191   C190    1.408   1_554 A
C192   C193    1.404   .     A
C192   H209    1.083   .     S
C193   C194    1.406   .     A
C194   C195    1.397   .     A
C194   H210    1.083   .     S
C195   C190    1.405   1_554 A
C195   H211    1.083   1_554 S
C196   N197    1.360   .     A
C196   N201    1.357   .     A
N197   N198    1.334   .     A
N198   C199    1.358   .     A
C199   N200    1.358   .     A
C199   C202    1.483   .     S
N200   N201    1.332   .     A
C202   C203    1.403   .     A
C202   C207    1.409   .     A
C203   C204    1.392   .     A
C203   H212    1.083   .     S
C204   C205    1.406   .     A
C204   H213    1.083   .     S
C205   C206    1.404   .     A
C206   C207    1.404   .     A
C206   H214    1.083   .     S
C207   H215    1.083   .     S
H211   C195    1.083   1_556 S
C216   C221    1.404   .     A
C216   C222    1.473   .     S
C216   C217    1.403   1_554 A
C217   C218    1.399   .     A
C217   H234    1.083   .     S
C217   C216    1.403   1_556 A
C218   H235    1.083   .     S
C218   C219    1.405   1_556 A
C219   C220    1.403   .     A
C219   C218    1.405   1_554 A
C220   C221    1.396   .     A
C220   H236    1.084   .     S
C221   H237    1.083   .     S
C222   N223    1.354   .     A
C222   N227    1.360   1_554 A
N223   N224    1.330   .     A
N224   C225    1.357   1_554 A
C225   N226    1.358   .     A
C225   C228    1.475   .     S
C225   N224    1.357   1_556 A
N226   N227    1.336   .     A
N227   C222    1.360   1_556 A
C228   C229    1.407   .     A
C228   C233    1.400   1_556 A
C229   C230    1.406   .     A
C229   H238    1.083   .     S
C230   C231    1.405   .     A
C230   H239    1.084   .     S
C231   C232    1.403   1_556 A
C232   C233    1.389   .     A
C232   H240    1.083   .     S
C232   C231    1.403   1_554 A
C233   H241    1.083   .     S
C233   C228    1.400   1_554 A
C242   C247    1.409   .     A
C242   C248    1.484   .     S
C242   C243    1.405   1_556 A
C243   C244    1.395   .     A
C243   H260    1.082   .     S
C243   C242    1.405   1_554 A
C244   H261    1.084   .     S
C244   C245    1.402   1_554 A
C245   C246    1.402   .     A
C245   C244    1.402   1_556 A
C246   C247    1.402   .     A
C246   H262    1.083   .     S
C247   H263    1.083   .     S
C248   N249    1.358   .     A
C248   N253    1.361   1_556 A
N249   N250    1.332   .     A
N250   C251    1.359   .     A
C251   N252    1.359   1_556 A
C251   C254    1.484   1_556 S
N252   N253    1.332   .     A
N252   C251    1.359   1_554 A
N253   C248    1.361   1_554 A
C254   C255    1.407   .     A
C254   C251    1.484   1_554 S
C254   C259    1.405   1_554 A
C255   C256    1.401   .     A
C255   H264    1.083   .     S
C256   C257    1.406   .     A
C256   H265    1.083   .     S
C257   C258    1.405   1_554 A
C258   C259    1.396   .     A
C258   H266    1.080   .     S
C258   C257    1.405   1_556 A
C259   H267    1.083   .     S
C259   C254    1.405   1_556 A
C268   C269    1.407   .     A
C268   C273    1.406   1_554 A
C268   C274    1.482   1_554 S
C269   C270    1.400   .     A
C269   H286    1.083   .     S
C270   C271    1.405   .     A
C270   H287    1.083   .     S
C271   C272    1.403   1_554 A
C272   C273    1.396   .     A
C272   H288    1.083   .     S
C272   C271    1.403   1_556 A
C273   H289    1.083   .     S
C273   C268    1.406   1_556 A
C274   N275    1.359   .     A
C274   C268    1.482   1_556 S
C274   N279    1.359   1_556 A
N275   N276    1.330   .     A
N276   C277    1.359   .     A
C277   C280    1.482   .     S
C277   N278    1.360   1_556 A
N278   N279    1.332   .     A
N278   C277    1.360   1_554 A
N279   C274    1.359   1_554 A
C280   C281    1.405   .     A
C280   C285    1.408   .     A
C281   C282    1.396   .     A
C281   H290    1.083   1_556 S
C282   C283    1.404   .     A
C282   H291    1.083   1_556 S
C283   C284    1.404   .     A
C284   C285    1.400   .     A
C284   H292    1.083   .     S
C285   H293    1.083   .     S
H290   C281    1.083   1_554 S
H291   C282    1.083   1_554 S
