data_kag+N173+E191
_audit_creation_date              2025-01-21
_audit_creation_method            'Materials Studio'
_symmetry_space_group_name_H-M    'P1'
_symmetry_Int_Tables_number       1
_symmetry_cell_setting            triclinic
loop_
_symmetry_equiv_pos_as_xyz
  x,y,z
_cell_length_a                    37.5808
_cell_length_b                    37.5464
_cell_length_c                    17.9284
_cell_angle_alpha                 89.8810
_cell_angle_beta                  90.5167
_cell_angle_gamma                 119.9747
loop_
_atom_site_label
_atom_site_type_symbol
_atom_site_fract_x
_atom_site_fract_y
_atom_site_fract_z
_atom_site_U_iso_or_equiv
_atom_site_adp_type
_atom_site_occupancy
Gd0    Gd    0.52505   0.48592   1.00966   0.00000  Uiso   1.00
Gd1    Gd    0.55776   0.55686   0.00978   0.00000  Uiso   1.00
O2     O     0.55588   0.55487   0.13410   0.00000  Uiso   1.00
O3     O     0.52641   0.48715   0.13393   0.00000  Uiso   1.00
O4     O     0.46490   0.48411   0.01016   0.00000  Uiso   1.00
O5     O     0.49523   0.55151   1.00609   0.00000  Uiso   1.00
O6     O     0.55704   0.44869   1.00719   0.00000  Uiso   1.00
O7     O     0.49246   0.41680   0.00898   0.00000  Uiso   1.00
O8     O     0.52533   0.48783   0.88529   0.00000  Uiso   1.00
C9     C     0.52442   0.41382   1.00714   0.00000  Uiso   1.00
O10    O     0.55796   0.55572   0.88559   0.00000  Uiso   1.00
O11    O     0.58755   0.49117   1.01019   0.00000  Uiso   1.00
C12    C     0.46237   0.51649   0.00741   0.00000  Uiso   1.00
O13    O     0.61793   0.55858   0.01270   0.00000  Uiso   1.00
O14    O     0.52573   0.59414   0.00781   0.00000  Uiso   1.00
O15    O     0.59029   0.62598   1.01151   0.00000  Uiso   1.00
C16    C     0.54111   0.52101   0.16959   0.00000  Uiso   1.00
C17    C     0.55835   0.62902   0.00979   0.00000  Uiso   1.00
C18    C     0.62044   0.52615   0.01215   0.00000  Uiso   1.00
C19    C     0.54163   0.52178   0.84987   0.00000  Uiso   1.00
Gd20   Gd    0.02246   0.53833   1.00602   0.00000  Uiso   1.00
Gd21   Gd    0.06079   0.50555   0.00656   0.00000  Uiso   1.00
O22    O     0.06154   0.50777   0.13087   0.00000  Uiso   1.00
O23    O     0.02366   0.53762   0.13027   0.00000  Uiso   1.00
O24    O     0.08062   0.59860   0.00646   0.00000  Uiso   1.00
O25    O     0.11767   0.56823   0.00338   0.00000  Uiso   1.00
O26    O     0.95327   0.50586   1.00691   0.00000  Uiso   1.00
O27    O     0.98550   0.57050   0.00593   0.00000  Uiso   1.00
O28    O     0.02276   0.53728   0.88170   0.00000  Uiso   1.00
C29    C     0.95070   0.53833   0.00708   0.00000  Uiso   1.00
O30    O     0.05852   0.50513   0.88227   0.00000  Uiso   1.00
O31    O     0.96552   0.47572   1.00512   0.00000  Uiso   1.00
C32    C     0.11547   0.60109   0.00410   0.00000  Uiso   1.00
O33    O     0.00248   0.44526   1.00925   0.00000  Uiso   1.00
O34    O     0.13005   0.53798   0.00530   0.00000  Uiso   1.00
O35    O     0.09774   0.47336   1.00701   0.00000  Uiso   1.00
C36    C     0.04277   0.52284   0.16613   0.00000  Uiso   1.00
C37    C     0.13260   0.50549   1.00623   0.00000  Uiso   1.00
C38    C     0.96761   0.44283   1.00728   0.00000  Uiso   1.00
C39    C     0.04048   0.52108   0.84642   0.00000  Uiso   1.00
Gd40   Gd    0.50625   1.00218   1.00824   0.00000  Uiso   1.00
Gd41   Gd    0.57712   0.04125   0.00966   0.00000  Uiso   1.00
O42    O     0.57536   0.04131   0.13385   0.00000  Uiso   1.00
O43    O     0.50780   0.00215   0.13260   0.00000  Uiso   1.00
O44    O     0.50331   0.06004   0.00966   0.00000  Uiso   1.00
O45    O     0.57061   0.09771   1.00677   0.00000  Uiso   1.00
O46    O     0.46958   0.93278   1.00549   0.00000  Uiso   1.00
O47    O     0.43725   0.96502   0.00756   0.00000  Uiso   1.00
O48    O     0.50788   0.00370   0.88398   0.00000  Uiso   1.00
C49    C     0.43456   0.93018   1.00580   0.00000  Uiso   1.00
O50    O     0.57569   0.03987   0.88531   0.00000  Uiso   1.00
O51    O     0.51276   0.94567   1.00658   0.00000  Uiso   1.00
C52    C     0.53542   0.09513   0.00750   0.00000  Uiso   1.00
O53    O     0.58006   0.98343   0.01187   0.00000  Uiso   1.00
O54    O     0.61338   0.11062   0.00956   0.00000  Uiso   1.00
O55    O     0.64611   0.07873   1.01117   0.00000  Uiso   1.00
C56    C     0.54155   0.02185   0.16878   0.00000  Uiso   1.00
C57    C     0.64851   0.11346   0.01086   0.00000  Uiso   1.00
C58    C     0.54800   0.94831   1.00901   0.00000  Uiso   1.00
C59    C     0.54182   0.02178   0.84909   0.00000  Uiso   1.00
Ni60   Ni    0.54144   0.52154   0.50976   0.00000  Uiso   1.00
C61    C     0.54109   0.52108   0.25216   0.00000  Uiso   1.00
C62    C     0.55705   0.55820   0.29207   0.00000  Uiso   1.00
C63    C     0.55687   0.55761   0.36997   0.00000  Uiso   1.00
C64    C     0.52559   0.48496   0.37009   0.00000  Uiso   1.00
C65    C     0.52516   0.48409   0.29217   0.00000  Uiso   1.00
H66    H     0.57465   0.58827   0.75617   0.00000  Uiso   1.00
H67    H     0.50840   0.45526   0.75572   0.00000  Uiso   1.00
H68    H     0.50915   0.45674   0.61819   0.00000  Uiso   1.00
H69    H     0.57391   0.58664   0.61859   0.00000  Uiso   1.00
N70    N     0.54153   0.52168   0.61238   0.00000  Uiso   1.00
N71    N     0.54130   0.52135   0.40711   0.00000  Uiso   1.00
H72    H     0.56955   0.58739   0.26347   0.00000  Uiso   1.00
H73    H     0.56913   0.58609   0.40100   0.00000  Uiso   1.00
H74    H     0.51339   0.45659   0.40123   0.00000  Uiso   1.00
H75    H     0.51251   0.45479   0.26365   0.00000  Uiso   1.00
C76    C     0.54158   0.52177   0.76733   0.00000  Uiso   1.00
C77    C     0.52304   0.48458   0.72725   0.00000  Uiso   1.00
C78    C     0.52338   0.48527   0.64937   0.00000  Uiso   1.00
C79    C     0.55970   0.55815   0.64959   0.00000  Uiso   1.00
C80    C     0.56005   0.55892   0.72749   0.00000  Uiso   1.00
Ni81   Ni    0.04183   0.52225   0.50627   0.00000  Uiso   1.00
C82    C     0.04033   0.52095   0.76385   0.00000  Uiso   1.00
C83    C     0.02149   0.53926   0.72340   0.00000  Uiso   1.00
C84    C     0.02225   0.53927   0.64550   0.00000  Uiso   1.00
C85    C     0.05936   0.50351   0.64647   0.00000  Uiso   1.00
C86    C     0.05935   0.50281   0.72436   0.00000  Uiso   1.00
H87    H     0.00522   0.55161   0.25905   0.00000  Uiso   1.00
H88    H     0.08078   0.49464   0.26110   0.00000  Uiso   1.00
H89    H     0.07958   0.49509   0.39866   0.00000  Uiso   1.00
H90    H     0.00580   0.55076   0.39656   0.00000  Uiso   1.00
N91    N     0.04259   0.52284   0.40364   0.00000  Uiso   1.00
N92    N     0.04105   0.52162   0.60889   0.00000  Uiso   1.00
H93    H     0.00645   0.55356   0.75159   0.00000  Uiso   1.00
H94    H     0.00791   0.55343   0.61405   0.00000  Uiso   1.00
H95    H     0.07404   0.48968   0.61578   0.00000  Uiso   1.00
H96    H     0.07415   0.48829   0.75329   0.00000  Uiso   1.00
C97    C     0.04298   0.52308   0.24869   0.00000  Uiso   1.00
C98    C     0.06407   0.50717   0.28923   0.00000  Uiso   1.00
C99    C     0.06347   0.50737   0.36714   0.00000  Uiso   1.00
C100   C     0.02207   0.53860   0.36595   0.00000  Uiso   1.00
C101   C     0.02185   0.53903   0.28806   0.00000  Uiso   1.00
Ni102  Ni    0.54178   0.02224   0.50892   0.00000  Uiso   1.00
C103   C     0.54152   0.02218   0.25131   0.00000  Uiso   1.00
C104   C     0.57790   0.04702   0.29173   0.00000  Uiso   1.00
C105   C     0.57721   0.04670   0.36961   0.00000  Uiso   1.00
C106   C     0.50593   0.99818   0.36867   0.00000  Uiso   1.00
C107   C     0.50516   0.99765   0.29076   0.00000  Uiso   1.00
H108   H     0.60767   0.06267   0.75634   0.00000  Uiso   1.00
H109   H     0.47612   0.98070   0.75402   0.00000  Uiso   1.00
H110   H     0.47767   0.98187   0.61652   0.00000  Uiso   1.00
H111   H     0.60617   0.06196   0.61876   0.00000  Uiso   1.00
N112   N     0.54189   0.02199   0.61158   0.00000  Uiso   1.00
N113   N     0.54162   0.02244   0.40626   0.00000  Uiso   1.00
H114   H     0.60655   0.06658   0.26352   0.00000  Uiso   1.00
H115   H     0.60511   0.06578   0.40105   0.00000  Uiso   1.00
H116   H     0.47808   0.97918   0.39936   0.00000  Uiso   1.00
H117   H     0.47647   0.97808   0.26177   0.00000  Uiso   1.00
C118   C     0.54188   0.02176   0.76654   0.00000  Uiso   1.00
C119   C     0.50512   0.99891   0.72596   0.00000  Uiso   1.00
C120   C     0.50587   0.99945   0.64808   0.00000  Uiso   1.00
C121   C     0.57796   0.04433   0.64933   0.00000  Uiso   1.00
C122   C     0.57867   0.04461   0.72724   0.00000  Uiso   1.00
Ni123  Ni    0.29546   0.50684   1.00527   0.00000  Uiso   1.00
C124   C     0.42165   0.51365   1.00591   0.00000  Uiso   1.00
C125   C     0.41785   0.54759   0.98476   0.00000  Uiso   1.00
C126   C     0.37930   0.54458   0.98472   0.00000  Uiso   1.00
C127   C     0.34802   0.47528   0.02468   0.00000  Uiso   1.00
C128   C     0.38606   0.47698   0.02559   0.00000  Uiso   1.00
H129   H     0.21020   0.57173   1.00854   0.00000  Uiso   1.00
H130   H     0.14411   0.43891   0.00596   0.00000  Uiso   1.00
H131   H     0.21078   0.44065   0.00564   0.00000  Uiso   1.00
H132   H     0.27514   0.57061   1.00705   0.00000  Uiso   1.00
N133   N     0.24589   0.50567   1.00585   0.00000  Uiso   1.00
N134   N     0.34544   0.50887   1.00465   0.00000  Uiso   1.00
H135   H     0.44428   0.57598   0.96754   0.00000  Uiso   1.00
H136   H     0.37629   0.57078   0.96882   0.00000  Uiso   1.00
H137   H     0.32055   0.44725   0.04031   0.00000  Uiso   1.00
H138   H     0.38767   0.45008   0.04225   0.00000  Uiso   1.00
C139   C     0.17185   0.50537   1.00640   0.00000  Uiso   1.00
C140   C     0.17241   0.46824   0.00599   0.00000  Uiso   1.00
C141   C     0.21007   0.46910   0.00576   0.00000  Uiso   1.00
C142   C     0.24616   0.54200   1.00662   0.00000  Uiso   1.00
C143   C     0.20931   0.54254   1.00717   0.00000  Uiso   1.00
Ni144  Ni    0.80969   0.27661   1.01173   0.00000  Uiso   1.00
C145   C     0.92959   0.40228   1.00776   0.00000  Uiso   1.00
C146   C     0.93043   0.36671   0.02930   0.00000  Uiso   1.00
C147   C     0.89387   0.32886   0.03036   0.00000  Uiso   1.00
C148   C     0.85615   0.36035   0.98875   0.00000  Uiso   1.00
C149   C     0.89187   0.39872   0.98697   0.00000  Uiso   1.00
H150   H     0.72638   0.12534   0.00376   0.00000  Uiso   1.00
H151   H     0.65964   0.19097   1.02099   0.00000  Uiso   1.00
H152   H     0.72560   0.25614   1.02060   0.00000  Uiso   1.00
H153   H     0.79115   0.19212   0.00479   0.00000  Uiso   1.00
N154   N     0.76127   0.22706   1.01276   0.00000  Uiso   1.00
N155   N     0.85776   0.32648   1.01032   0.00000  Uiso   1.00
H156   H     0.95892   0.36820   0.04584   0.00000  Uiso   1.00
H157   H     0.89425   0.30139   0.04729   0.00000  Uiso   1.00
H158   H     0.82701   0.35747   0.97275   0.00000  Uiso   1.00
H159   H     0.89003   0.42521   0.96863   0.00000  Uiso   1.00
C160   C     0.68769   0.15286   1.01188   0.00000  Uiso   1.00
C161   C     0.68793   0.19025   1.01696   0.00000  Uiso   1.00
C162   C     0.72526   0.22721   1.01713   0.00000  Uiso   1.00
C163   C     0.76203   0.19130   0.00827   0.00000  Uiso   1.00
C164   C     0.72533   0.15358   0.00775   0.00000  Uiso   1.00
Ni165  Ni    0.78755   0.53607   0.01305   0.00000  Uiso   1.00
C166   C     0.91144   0.53829   0.00886   0.00000  Uiso   1.00
C167   C     0.87438   0.50131   0.01816   0.00000  Uiso   1.00
C168   C     0.83744   0.50165   0.01945   0.00000  Uiso   1.00
C169   C     0.87273   0.57397   0.00332   0.00000  Uiso   1.00
C170   C     0.91047   0.57503   0.00169   0.00000  Uiso   1.00
H171   H     0.63742   0.46372   0.03095   0.00000  Uiso   1.00
H172   H     0.69634   0.59506  -0.00194   0.00000  Uiso   1.00
H173   H     0.76339   0.59785  -0.00115   0.00000  Uiso   1.00
H174   H     0.70555   0.46931   0.02973   0.00000  Uiso   1.00
N175   N     0.73744   0.53374   0.01408   0.00000  Uiso   1.00
N176   N     0.83727   0.53758   0.01197   0.00000  Uiso   1.00
H177   H     0.87394   0.47247   0.02484   0.00000  Uiso   1.00
H178   H     0.80875   0.47320   0.02640   0.00000  Uiso   1.00
H179   H     0.87168   0.60211  -0.00249   0.00000  Uiso   1.00
H180   H     0.93849   0.60417  -0.00543   0.00000  Uiso   1.00
C181   C     0.66117   0.52890   0.01356   0.00000  Uiso   1.00
C182   C     0.69739   0.56696   0.00527   0.00000  Uiso   1.00
C183   C     0.73544   0.56868   0.00563   0.00000  Uiso   1.00
C184   C     0.70298   0.49658   0.02289   0.00000  Uiso   1.00
C185   C     0.66438   0.49348   0.02302   0.00000  Uiso   1.00
Ni186  Ni    0.27274   0.76770   0.00107   0.00000  Uiso   1.00
C187   C     0.39513   0.89098   0.00426   0.00000  Uiso   1.00
C188   C     0.35779   0.89039   0.01383   0.00000  Uiso   1.00
C189   C     0.32090   0.85283   0.01254   0.00000  Uiso   1.00
C190   C     0.35687   0.81689   0.99193   0.00000  Uiso   1.00
C191   C     0.39434   0.85364   0.99315   0.00000  Uiso   1.00
H192   H     0.12411   0.67632   0.03733   0.00000  Uiso   1.00
H193   H     0.19240   0.61852   0.96400   0.00000  Uiso   1.00
H194   H     0.25524   0.68648   0.96481   0.00000  Uiso   1.00
H195   H     0.18850   0.74335   0.03517   0.00000  Uiso   1.00
N196   N     0.22472   0.71784   0.00035   0.00000  Uiso   1.00
N197   N     0.32120   0.81714   0.00177   0.00000  Uiso   1.00
H198   H     0.35714   0.91859   0.02266   0.00000  Uiso   1.00
H199   H     0.29201   0.85207   0.02029   0.00000  Uiso   1.00
H200   H     0.35615   0.78802   0.98321   0.00000  Uiso   1.00
H201   H     0.42225   0.85273   0.98510   0.00000  Uiso   1.00
C202   C     0.15327   0.64178   0.00216   0.00000  Uiso   1.00
C203   C     0.19071   0.64521   0.98102   0.00000  Uiso   1.00
C204   C     0.22626   0.68372   0.98069   0.00000  Uiso   1.00
C205   C     0.18881   0.71563   0.02000   0.00000  Uiso   1.00
C206   C     0.15244   0.67765   0.02111   0.00000  Uiso   1.00
Ni207  Ni    0.55845   0.79134   1.00885   0.00000  Uiso   1.00
C208   C     0.55136   0.91066   1.00832   0.00000  Uiso   1.00
C209   C     0.51680   0.87245   0.99205   0.00000  Uiso   1.00
C210   C     0.51998   0.83702   0.99241   0.00000  Uiso   1.00
C211   C     0.59080   0.87598   0.02311   0.00000  Uiso   1.00
C212   C     0.58892   0.91229   0.02351   0.00000  Uiso   1.00
H213   H     0.49290   0.64138   0.99799   0.00000  Uiso   1.00
H214   H     0.62491   0.70652   0.02310   0.00000  Uiso   1.00
H215   H     0.62388   0.77191   0.02252   0.00000  Uiso   1.00
H216   H     0.49474   0.70781   0.99700   0.00000  Uiso   1.00
N217   N     0.55930   0.74276   1.00951   0.00000  Uiso   1.00
N218   N     0.55650   0.83936   1.00800   0.00000  Uiso   1.00
H219   H     0.48772   0.87002   0.97839   0.00000  Uiso   1.00
H220   H     0.49326   0.80751   0.98017   0.00000  Uiso   1.00
H221   H     0.61952   0.87692   0.03504   0.00000  Uiso   1.00
H222   H     0.61642   0.94119   0.03599   0.00000  Uiso   1.00
C223   C     0.55883   0.66858   1.01002   0.00000  Uiso   1.00
C224   C     0.59594   0.70596   0.01712   0.00000  Uiso   1.00
C225   C     0.59547   0.74299   0.01686   0.00000  Uiso   1.00
C226   C     0.52301   0.70702   1.00270   0.00000  Uiso   1.00
C227   C     0.52208   0.66941   1.00310   0.00000  Uiso   1.00
Ni228  Ni    0.52534   0.25217   0.00371   0.00000  Uiso   1.00
C229   C     0.52402   0.37436   0.00518   0.00000  Uiso   1.00
C230   C     0.48765   0.33710   0.01799   0.00000  Uiso   1.00
C231   C     0.48842   0.30023   0.01715   0.00000  Uiso   1.00
C232   C     0.55958   0.33613   0.99019   0.00000  Uiso   1.00
C233   C     0.56020   0.37358   0.99064   0.00000  Uiso   1.00
H234   H     0.46784   0.10294   0.03573   0.00000  Uiso   1.00
H235   H     0.59544   0.17287   0.97277   0.00000  Uiso   1.00
H236   H     0.59008   0.23557   0.97345   0.00000  Uiso   1.00
H237   H     0.46504   0.16734   0.03344   0.00000  Uiso   1.00
N238   N     0.52744   0.20427   0.00376   0.00000  Uiso   1.00
N239   N     0.52411   0.30053   0.00357   0.00000  Uiso   1.00
H240   H     0.45910   0.33652   0.02920   0.00000  Uiso   1.00
H241   H     0.46065   0.27140   0.02759   0.00000  Uiso   1.00
H242   H     0.58744   0.33535   0.97924   0.00000  Uiso   1.00
H243   H     0.58861   0.40154   0.97913   0.00000  Uiso   1.00
C244   C     0.53228   0.13286   0.00566   0.00000  Uiso   1.00
C245   C     0.56663   0.17075   0.98743   0.00000  Uiso   1.00
C246   C     0.56358   0.20627   0.98707   0.00000  Uiso   1.00
C247   C     0.49342   0.16796   0.02062   0.00000  Uiso   1.00
C248   C     0.49513   0.13159   0.02177   0.00000  Uiso   1.00
loop_
_geom_bond_atom_site_label_1
_geom_bond_atom_site_label_2
_geom_bond_distance
_geom_bond_site_symmetry_2
_ccdc_geom_bond_type
Gd0    O6      2.254   .     S
Gd0    O8      2.231   .     S
Gd0    O11     2.257   .     S
Gd0    O3      2.228   1_556 S
Gd0    O4      2.228   1_556 S
Gd0    O7      2.249   1_556 S
Gd1    O2      2.231   .     S
Gd1    O13     2.230   .     S
Gd1    O14     2.256   .     S
Gd1    O5      2.257   1_554 S
Gd1    O10     2.227   1_554 S
Gd1    O15     2.249   1_554 S
O2     C16     1.275   .     A
O3     C16     1.275   .     A
O3     Gd0     2.228   1_554 S
O4     C12     1.267   .     A
O4     Gd0     2.228   1_554 S
O5     Gd1     2.257   1_556 S
O5     C12     1.277   1_556 A
O6     C9      1.270   .     A
O7     Gd0     2.249   1_554 S
O7     C9      1.261   1_554 A
O8     C19     1.275   .     A
C9     O7      1.261   1_556 A
C9     C229    1.475   1_556 S
O10    C19     1.275   .     A
O10    Gd1     2.227   1_556 S
O11    C18     1.277   1_556 A
C12    O5      1.277   1_554 A
C12    C124    1.480   1_554 S
O13    C18     1.267   .     A
O14    C17     1.271   .     A
O15    Gd1     2.249   1_556 S
O15    C17     1.261   1_556 A
C16    C61     1.480   .     S
C17    O15     1.261   1_554 A
C17    C223    1.477   1_554 S
C18    C181    1.482   .     S
C18    O11     1.277   1_554 A
C19    C76     1.480   .     S
Gd20   O28     2.229   .     S
Gd20   O23     2.228   1_556 S
Gd20   O24     2.226   1_556 S
Gd20   O26     2.254   1_455 S
Gd20   O27     2.251   1_456 S
Gd20   O31     2.253   1_455 S
Gd21   O22     2.230   .     S
Gd21   O25     2.255   .     S
Gd21   O34     2.257   .     S
Gd21   O30     2.229   1_554 S
Gd21   O33     2.230   1_554 S
Gd21   O35     2.251   1_554 S
O22    C36     1.275   .     A
O23    C36     1.275   .     A
O23    Gd20    2.228   1_554 S
O24    C32     1.267   .     A
O24    Gd20    2.226   1_554 S
O25    C32     1.277   .     A
O26    Gd20    2.254   1_655 S
O26    C29     1.270   1_556 A
O27    C29     1.262   .     A
O27    Gd20    2.251   1_654 S
O28    C39     1.275   .     A
C29    C166    1.475   .     S
C29    O26     1.270   1_554 A
O30    C39     1.276   .     A
O30    Gd21    2.229   1_556 S
O31    C38     1.277   .     A
O31    Gd20    2.253   1_655 S
C32    C202    1.478   .     S
O33    Gd21    2.230   1_556 S
O33    C38     1.267   1_455 A
O34    C37     1.271   1_554 A
O35    C37     1.262   .     A
O35    Gd21    2.251   1_556 S
C36    C97     1.480   .     S
C37    C139    1.477   .     S
C37    O34     1.271   1_556 A
C38    C145    1.479   .     S
C38    O33     1.267   1_655 A
C39    C82     1.480   .     S
Gd40   O46     2.259   .     S
Gd40   O51     2.254   .     S
Gd40   O43     2.230   1_566 S
Gd40   O44     2.230   1_566 S
Gd40   O47     2.249   1_556 S
Gd40   O48     2.229   1_565 S
Gd41   O42     2.228   .     S
Gd41   O54     2.257   .     S
Gd41   O45     2.253   1_554 S
Gd41   O50     2.230   1_554 S
Gd41   O53     2.229   1_545 S
Gd41   O55     2.249   1_554 S
O42    C56     1.275   .     A
O43    C56     1.275   .     A
O43    Gd40    2.230   1_544 S
O44    C52     1.267   .     A
O44    Gd40    2.230   1_544 S
O45    Gd41    2.253   1_556 S
O45    C52     1.277   1_556 A
O46    C49     1.271   .     A
O47    Gd40    2.249   1_554 S
O47    C49     1.261   1_554 A
O48    C59     1.275   .     A
O48    Gd40    2.229   1_545 S
C49    O47     1.261   1_556 A
C49    C187    1.477   1_556 S
O50    C59     1.275   .     A
O50    Gd41    2.230   1_556 S
O51    C58     1.278   .     A
C52    C244    1.479   .     S
C52    O45     1.277   1_554 A
O53    Gd41    2.229   1_565 S
O53    C58     1.267   1_554 A
O54    C57     1.270   .     A
O55    Gd41    2.249   1_556 S
O55    C57     1.261   1_556 A
C56    C103    1.480   .     S
C57    O55     1.261   1_554 A
C57    C160    1.476   1_554 S
C58    C208    1.481   .     S
C58    O53     1.267   1_556 A
C59    C118    1.480   .     S
Ni60   N70     1.840   .     S
Ni60   N71     1.840   .     S
C61    C62     1.405   .     A
C61    C65     1.405   .     A
C62    C63     1.397   .     A
C62    H72     1.083   .     S
C63    N71     1.359   .     A
C63    H73     1.082   .     S
C64    C65     1.397   .     A
C64    N71     1.359   .     A
C64    H74     1.082   .     S
C65    H75     1.083   .     S
H66    C80     1.083   .     S
H67    C77     1.083   .     S
H68    C78     1.082   .     S
H69    C79     1.082   .     S
N70    C78     1.359   .     A
N70    C79     1.359   .     A
C76    C77     1.405   .     A
C76    C80     1.405   .     A
C77    C78     1.397   .     A
C79    C80     1.397   .     A
Ni81   N91     1.840   .     S
Ni81   N92     1.840   .     S
C82    C83     1.405   .     A
C82    C86     1.405   .     A
C83    C84     1.397   .     A
C83    H93     1.083   .     S
C84    N92     1.359   .     A
C84    H94     1.082   .     S
C85    C86     1.397   .     A
C85    N92     1.359   .     A
C85    H95     1.082   .     S
C86    H96     1.083   .     S
H87    C101    1.083   .     S
H88    C98     1.083   .     S
H89    C99     1.082   .     S
H90    C100    1.082   .     S
N91    C99     1.359   .     A
N91    C100    1.359   .     A
C97    C98     1.405   .     A
C97    C101    1.405   .     A
C98    C99     1.397   .     A
C100   C101    1.397   .     A
Ni102  N112    1.841   .     S
Ni102  N113    1.841   .     S
C103   C104    1.405   .     A
C103   C107    1.405   1_545 A
C104   C105    1.397   .     A
C104   H114    1.083   .     S
C105   N113    1.359   .     A
C105   H115    1.082   .     S
C106   C107    1.397   .     A
C106   H116    1.082   .     S
C106   N113    1.360   1_565 A
C107   H117    1.083   .     S
C107   C103    1.405   1_565 A
H108   C122    1.083   .     S
H109   C119    1.083   .     S
H110   C120    1.082   .     S
H111   C121    1.082   .     S
N112   C121    1.360   .     A
N112   C120    1.359   1_545 A
N113   C106    1.360   1_545 A
C118   C122    1.405   .     A
C118   C119    1.405   1_545 A
C119   C120    1.397   .     A
C119   C118    1.405   1_565 A
C120   N112    1.359   1_565 A
C121   C122    1.397   .     A
Ni123  N133    1.841   .     S
Ni123  N134    1.841   .     S
C124   C125    1.403   .     A
C124   C128    1.405   1_556 A
C124   C12     1.480   1_556 S
C125   C126    1.396   .     A
C125   H135    1.079   .     S
C126   N134    1.359   .     A
C126   H136    1.082   .     S
C127   C128    1.399   .     A
C127   H137    1.082   .     S
C127   N134    1.360   1_554 A
C128   H138    1.083   .     S
C128   C124    1.405   1_554 A
H129   C143    1.080   .     S
H130   C140    1.083   .     S
H131   C141    1.082   .     S
H132   C142    1.082   .     S
N133   C142    1.359   .     A
N133   C141    1.360   1_556 A
N134   C127    1.360   1_556 A
C139   C143    1.402   .     A
C139   C140    1.405   1_556 A
C140   C141    1.399   .     A
C140   C139    1.405   1_554 A
C141   N133    1.360   1_554 A
C142   C143    1.395   .     A
Ni144  N154    1.841   .     S
Ni144  N155    1.841   .     S
C145   C149    1.403   .     A
C145   C146    1.405   1_556 A
C146   C147    1.399   .     A
C146   H156    1.083   .     S
C146   C145    1.405   1_554 A
C147   H157    1.082   .     S
C147   N155    1.360   1_554 A
C148   C149    1.395   .     A
C148   N155    1.358   .     A
C148   H158    1.081   .     S
C149   H159    1.081   .     S
H150   C164    1.083   .     S
H151   C161    1.080   .     S
H152   C162    1.082   .     S
H153   C163    1.082   .     S
N154   C162    1.359   .     A
N154   C163    1.360   1_556 A
N155   C147    1.360   1_556 A
C160   C161    1.402   .     A
C160   C164    1.404   1_556 A
C160   C57     1.476   1_556 S
C161   C162    1.396   .     A
C163   C164    1.399   .     A
C163   N154    1.360   1_554 A
C164   C160    1.404   1_554 A
Ni165  N175    1.841   .     S
Ni165  N176    1.841   .     S
C166   C167    1.402   .     A
C166   C170    1.404   .     A
C167   C168    1.395   .     A
C167   H177    1.081   .     S
C168   N176    1.359   .     A
C168   H178    1.082   .     S
C169   C170    1.399   .     A
C169   N176    1.360   .     A
C169   H179    1.082   .     S
C170   H180    1.083   .     S
H171   C185    1.080   .     S
H172   C182    1.083   .     S
H173   C183    1.082   .     S
H174   C184    1.082   .     S
N175   C183    1.359   .     A
N175   C184    1.359   .     A
C181   C182    1.406   .     A
C181   C185    1.404   .     A
C182   C183    1.399   .     A
C184   C185    1.396   .     A
Ni186  N196    1.840   .     S
Ni186  N197    1.840   .     S
C187   C188    1.405   .     A
C187   C191    1.402   1_554 A
C187   C49     1.477   1_554 S
C188   C189    1.399   .     A
C188   H198    1.083   .     S
C189   N197    1.360   .     A
C189   H199    1.082   .     S
C190   C191    1.395   .     A
C190   H200    1.082   .     S
C190   N197    1.358   1_556 A
C191   H201    1.077   .     S
C191   C187    1.402   1_556 A
H192   C206    1.083   .     S
H193   C203    1.080   .     S
H194   C204    1.082   .     S
H195   C205    1.082   .     S
N196   C205    1.360   .     A
N196   C204    1.359   1_554 A
N197   C190    1.358   1_554 A
C202   C206    1.405   .     A
C202   C203    1.403   1_554 A
C203   C204    1.395   .     A
C203   C202    1.403   1_556 A
C204   N196    1.359   1_556 A
C205   C206    1.398   .     A
Ni207  N217    1.840   .     S
Ni207  N218    1.840   .     S
C208   C209    1.401   .     A
C208   C212    1.406   1_556 A
C209   C210    1.393   .     A
C209   H219    1.076   .     S
C210   N218    1.358   .     A
C210   H220    1.082   .     S
C211   C212    1.400   .     A
C211   H221    1.081   .     S
C211   N218    1.360   1_554 A
C212   H222    1.083   .     S
C212   C208    1.406   1_554 A
H213   C227    1.079   .     S
H214   C224    1.083   .     S
H215   C225    1.081   .     S
H216   C226    1.082   .     S
N217   C226    1.358   .     A
N217   C225    1.360   1_556 A
N218   C211    1.360   1_556 A
C223   C227    1.402   .     A
C223   C224    1.404   1_556 A
C223   C17     1.477   1_556 S
C224   C225    1.399   .     A
C224   C223    1.404   1_554 A
C225   N217    1.360   1_554 A
C226   C227    1.395   .     A
Ni228  N238    1.839   .     S
Ni228  N239    1.839   .     S
C229   C230    1.404   .     A
C229   C233    1.402   1_554 A
C229   C9      1.475   1_554 S
C230   C231    1.399   .     A
C230   H240    1.083   .     S
C231   N239    1.360   .     A
C231   H241    1.082   .     S
C232   C233    1.395   .     A
C232   H242    1.082   .     S
C232   N239    1.358   1_556 A
C233   H243    1.080   .     S
C233   C229    1.402   1_556 A
H234   C248    1.083   .     S
H235   C245    1.080   .     S
H236   C246    1.082   .     S
H237   C247    1.082   .     S
N238   C247    1.360   .     A
N238   C246    1.358   1_554 A
N239   C232    1.358   1_554 A
C244   C248    1.405   .     A
C244   C245    1.403   1_554 A
C245   C246    1.394   .     A
C245   C244    1.403   1_556 A
C246   N238    1.358   1_556 A
C247   C248    1.399   .     A
