data_kag+N106+E9
_audit_creation_date              2025-01-21
_audit_creation_method            'Materials Studio'
_symmetry_space_group_name_H-M    'P1'
_symmetry_Int_Tables_number       1
_symmetry_cell_setting            triclinic
loop_
_symmetry_equiv_pos_as_xyz
  x,y,z
_cell_length_a                    41.8828
_cell_length_b                    42.4331
_cell_length_c                    18.5278
_cell_angle_alpha                 93.2501
_cell_angle_beta                  80.5359
_cell_angle_gamma                 125.2605
loop_
_atom_site_label
_atom_site_type_symbol
_atom_site_fract_x
_atom_site_fract_y
_atom_site_fract_z
_atom_site_U_iso_or_equiv
_atom_site_adp_type
_atom_site_occupancy
Y0     Y     0.52992   0.54905  -0.02193   0.00000  Uiso   1.00
Y1     Y     0.48143   0.45975   1.02138   0.00000  Uiso   1.00
O2     O     0.57840   0.53988  -0.05008   0.00000  Uiso   1.00
O3     O     0.51843   0.49640   0.91698   0.00000  Uiso   1.00
C4     C     0.45502   0.38937   1.07495   0.00000  Uiso   1.00
O5     O     0.45877   0.44839   0.91307   0.00000  Uiso   1.00
O6     O     0.56465   0.61400  -0.01670   0.00000  Uiso   1.00
O7     O     0.53625   0.58907   0.89211   0.00000  Uiso   1.00
O8     O     0.54644   0.48393   1.01643   0.00000  Uiso   1.00
O9     O     0.49289   0.51235   0.08249   0.00000  Uiso   1.00
O10    O     0.55259   0.56015   0.08638   0.00000  Uiso   1.00
O11    O     0.46487   0.52476  -0.01755   0.00000  Uiso   1.00
C12    C     0.57823   0.51358   0.98140   0.00000  Uiso   1.00
O13    O     0.43295   0.46884   1.04903   0.00000  Uiso   1.00
C14    C     0.48785   0.47582   0.87732   0.00000  Uiso   1.00
O15    O     0.44690   0.39488   1.01650   0.00000  Uiso   1.00
O16    O     0.47503   0.42002   0.10799   0.00000  Uiso   1.00
C17    C     0.55644   0.61968  -0.07487   0.00000  Uiso   1.00
C18    C     0.43308   0.49507   0.01743   0.00000  Uiso   1.00
C19    C     0.52351   0.53271   0.12210   0.00000  Uiso   1.00
Y20    Y     0.97616   0.51566  -0.00442   0.00000  Uiso   1.00
Y21    Y     0.03414   0.49090   1.00282   0.00000  Uiso   1.00
O22    O     0.03553   0.57346  -0.01790   0.00000  Uiso   1.00
O23    O     1.02614   0.52019   0.91604   0.00000  Uiso   1.00
C24    C     0.09213   0.48283   1.01690   0.00000  Uiso   1.00
O25    O     0.02302   0.46888   0.88913   0.00000  Uiso   1.00
O26    O     0.91802   0.50680   0.03566   0.00000  Uiso   1.00
O27    O     0.94879   0.53724   0.93432   0.00000  Uiso   1.00
O28    O     0.06718   0.55371   1.03178   0.00000  Uiso   1.00
O29    O    -0.01565   0.48665   0.08257   0.00000  Uiso   1.00
O30    O     0.98758   0.53807   0.10892   0.00000  Uiso   1.00
O31    O     0.94304   0.45276  -0.03294   0.00000  Uiso   1.00
C32    C     0.06512   0.58050   1.00964   0.00000  Uiso   1.00
O33    O     0.97493   0.43304   1.01595   0.00000  Uiso   1.00
C34    C     0.01934   0.49255   0.86618   0.00000  Uiso   1.00
O35    O     0.09294   0.50090   0.96443   0.00000  Uiso   1.00
O36    O     0.06087   0.46843   0.06353   0.00000  Uiso   1.00
C37    C     0.91816   0.52387  -0.01774   0.00000  Uiso   1.00
C38    C     0.94524   0.42600  -0.01113   0.00000  Uiso   1.00
C39    C    -0.00865   0.51451   0.13207   0.00000  Uiso   1.00
Y40    Y     0.48505   0.02568   1.02661   0.00000  Uiso   1.00
Y41    Y     0.52442   0.98209  -0.02729   0.00000  Uiso   1.00
O42    O     0.43285   0.96362   1.05062   0.00000  Uiso   1.00
O43    O     0.48941  -0.01808   0.08035   0.00000  Uiso   1.00
C44    C     0.54825   0.93723  -0.08179   0.00000  Uiso   1.00
O45    O     0.54729   0.99640   0.08100   0.00000  Uiso   1.00
O46    O     0.45247   0.05283   1.02372   0.00000  Uiso   1.00
O47    O     0.48245   0.06501   0.11261   0.00000  Uiso   1.00
O48    O     0.45826   0.93791  -0.02722   0.00000  Uiso   1.00
O49    O     0.51992   1.02572   0.91885   0.00000  Uiso   1.00
O50    O     0.46199   0.01118   0.91855   0.00000  Uiso   1.00
O51    O     0.55117   0.06961   1.02709   0.00000  Uiso   1.00
C52    C     0.42869   0.93571   0.01213   0.00000  Uiso   1.00
O53    O     0.57657   0.04411  -0.05127   0.00000  Uiso   1.00
C54    C     0.51946  -0.00624   0.11905   0.00000  Uiso   1.00
O55    O     0.55748   0.95548  -0.02438   0.00000  Uiso   1.00
O56    O     0.52768   0.94323   0.88638   0.00000  Uiso   1.00
C57    C     0.46201   0.07123   1.08090   0.00000  Uiso   1.00
C58    C     0.58072   0.07188   0.98761   0.00000  Uiso   1.00
C59    C     0.48971   0.01366   0.88042   0.00000  Uiso   1.00
C60    C     0.51385   0.51389   0.34623   0.00000  Uiso   1.00
N61    N     0.54823   0.54367   0.30768   0.00000  Uiso   1.00
N62    N     0.55148   0.54923   0.23603   0.00000  Uiso   1.00
C63    C     0.52048   0.52520   0.20017   0.00000  Uiso   1.00
N64    N     0.48616   0.49530   0.23852   0.00000  Uiso   1.00
N65    N     0.48292   0.48972   0.31022   0.00000  Uiso   1.00
C66    C     0.50988   0.50850   0.42585   0.00000  Uiso   1.00
N67    N     0.47532   0.47905   0.46463   0.00000  Uiso   1.00
N68    N     0.47152   0.47451   0.53686   0.00000  Uiso   1.00
C69    C     0.50211   0.49928   0.57311   0.00000  Uiso   1.00
N70    N     0.53668   0.52872   0.53434   0.00000  Uiso   1.00
N71    N     0.54048   0.53327   0.46210   0.00000  Uiso   1.00
C72    C     0.49805   0.49393   0.65275   0.00000  Uiso   1.00
N73    N     0.52887   0.51821   0.68891   0.00000  Uiso   1.00
N74    N     0.52544   0.51281   0.76074   0.00000  Uiso   1.00
C75    C     0.49104   0.48303   0.79908   0.00000  Uiso   1.00
N76    N     0.46017   0.45882   0.76305   0.00000  Uiso   1.00
N77    N     0.46361   0.46420   0.69125   0.00000  Uiso   1.00
C78    C     0.00853   0.49839   0.64857   0.00000  Uiso   1.00
N79    N     1.00636   0.46799   0.67535   0.00000  Uiso   1.00
N80    N     1.00875   0.46568   0.74538   0.00000  Uiso   1.00
C81    C     0.01324   0.49360   0.79120   0.00000  Uiso   1.00
N82    N     0.01500   0.52382   0.76476   0.00000  Uiso   1.00
N83    N     0.01262   0.52614   0.69463   0.00000  Uiso   1.00
C84    C     0.00733   0.50150   0.57076   0.00000  Uiso   1.00
N85    N     0.00990   0.53202   0.54336   0.00000  Uiso   1.00
N86    N     0.00906   0.53488   0.47256   0.00000  Uiso   1.00
C87    C     0.00572   0.50737   0.42663   0.00000  Uiso   1.00
N88    N     1.00319   0.47688   0.45403   0.00000  Uiso   1.00
N89    N     1.00404   0.47403   0.52480   0.00000  Uiso   1.00
C90    C     0.00407   0.51016   0.34897   0.00000  Uiso   1.00
N91    N     0.99968   0.48217   0.30331   0.00000  Uiso   1.00
N92    N     0.99666   0.48400   0.23340   0.00000  Uiso   1.00
C93    C    -0.00198   0.51395   0.20680   0.00000  Uiso   1.00
N94    N     0.00282   0.54213   0.25220   0.00000  Uiso   1.00
N95    N     0.00586   0.54031   0.32202   0.00000  Uiso   1.00
C96    C     0.51057   0.00126   0.34589   0.00000  Uiso   1.00
N97    N     0.47972   0.99151   0.31225   0.00000  Uiso   1.00
N98    N     0.48277   0.98984   0.23961   0.00000  Uiso   1.00
C99    C     0.51680  -0.00195   0.19815   0.00000  Uiso   1.00
N100   N     0.54763   0.00789   0.23173   0.00000  Uiso   1.00
N101   N     0.54458   0.00952   0.30427   0.00000  Uiso   1.00
C102   C     0.50721   0.00251   0.42585   0.00000  Uiso   1.00
N103   N     0.53765   0.01079   0.45911   0.00000  Uiso   1.00
N104   N     0.53465   0.01174   0.53175   0.00000  Uiso   1.00
C105   C     0.50110   0.00439   0.57379   0.00000  Uiso   1.00
N106   N     0.47069   0.99620   0.54054   0.00000  Uiso   1.00
N107   N     0.47368   0.99525   0.46788   0.00000  Uiso   1.00
C108   C     0.49778   0.00544   0.65377   0.00000  Uiso   1.00
N109   N     0.46385   0.99724   0.69570   0.00000  Uiso   1.00
N110   N     0.46103   0.99897   0.76821   0.00000  Uiso   1.00
C111   C     0.49200   0.00888   0.80144   0.00000  Uiso   1.00
N112   N     0.52586   0.01683   0.75970   0.00000  Uiso   1.00
N113   N     0.52867   0.01504   0.68710   0.00000  Uiso   1.00
C114   C     0.32796   0.48686   1.02848   0.00000  Uiso   1.00
N115   N     0.32836   0.46050   0.06593   0.00000  Uiso   1.00
N116   N     0.36180   0.46295   0.06259   0.00000  Uiso   1.00
C117   C     0.39600   0.49191   1.02192   0.00000  Uiso   1.00
N118   N     0.39551   0.51821   0.98466   0.00000  Uiso   1.00
N119   N     0.36214   0.51567   0.98775   0.00000  Uiso   1.00
C120   C     0.29141   0.48443   1.03022   0.00000  Uiso   1.00
N121   N     0.29142   0.50859   0.98541   0.00000  Uiso   1.00
N122   N     0.25866   0.50674   0.98523   0.00000  Uiso   1.00
C123   C     0.22457   0.48079   1.03004   0.00000  Uiso   1.00
N124   N     0.22443   0.45664   0.07546   0.00000  Uiso   1.00
N125   N     0.25732   0.45838   0.07540   0.00000  Uiso   1.00
C126   C     0.18896   0.47949   1.02759   0.00000  Uiso   1.00
N127   N     0.15561   0.45879   0.07838   0.00000  Uiso   1.00
N128   N     0.12426   0.45935   0.07552   0.00000  Uiso   1.00
C129   C     0.12529   0.48050   1.02159   0.00000  Uiso   1.00
N130   N     0.15844   0.50075   0.97082   0.00000  Uiso   1.00
N131   N     0.18964   0.50033   0.97385   0.00000  Uiso   1.00
C132   C     0.84400   0.31448  -0.01902   0.00000  Uiso   1.00
N133   N     0.85806   0.34105   0.92548   0.00000  Uiso   1.00
N134   N     0.89107   0.37632   0.92711   0.00000  Uiso   1.00
C135   C     0.91166   0.38603  -0.01650   0.00000  Uiso   1.00
N136   N     0.89804   0.35927   0.03838   0.00000  Uiso   1.00
N137   N     0.86462   0.32416   0.03736   0.00000  Uiso   1.00
C138   C     0.80593   0.27685  -0.01806   0.00000  Uiso   1.00
N139   N     0.78345   0.25725   0.04640   0.00000  Uiso   1.00
N140   N     0.74777   0.22416   0.04754   0.00000  Uiso   1.00
C141   C     0.73356   0.20927  -0.01582   0.00000  Uiso   1.00
N142   N     0.75624   0.22863   0.91969   0.00000  Uiso   1.00
N143   N     0.79165   0.26201   0.91864   0.00000  Uiso   1.00
C144   C     0.69398   0.17334  -0.01463   0.00000  Uiso   1.00
N145   N     0.68494   0.15115   0.92613   0.00000  Uiso   1.00
N146   N     0.64886   0.11865   0.92691   0.00000  Uiso   1.00
C147   C     0.62037   0.10759  -0.01353   0.00000  Uiso   1.00
N148   N     0.62931   0.12993   0.04551   0.00000  Uiso   1.00
N149   N     0.66556   0.16212   0.04516   0.00000  Uiso   1.00
C150   C     0.82158   0.52802  -0.02613   0.00000  Uiso   1.00
N151   N     0.85448   0.54795   0.92187   0.00000  Uiso   1.00
N152   N     0.88570   0.54704   0.92388   0.00000  Uiso   1.00
C153   C     0.88498   0.52629  -0.02184   0.00000  Uiso   1.00
N154   N     0.85225   0.50674   0.03009   0.00000  Uiso   1.00
N155   N     0.82116   0.50749   0.02789   0.00000  Uiso   1.00
C156   C     0.78615   0.52714  -0.02796   0.00000  Uiso   1.00
N157   N     0.75202   0.50144   0.01710   0.00000  Uiso   1.00
N158   N     0.71938   0.49979   0.01665   0.00000  Uiso   1.00
C159   C     0.71957   0.52391  -0.02862   0.00000  Uiso   1.00
N160   N     0.75372   0.54978   0.92619   0.00000  Uiso   1.00
N161   N     0.78647   0.55131   0.92637   0.00000  Uiso   1.00
C162   C     0.68310   0.52154  -0.02776   0.00000  Uiso   1.00
N163   N     0.68309   0.54830   0.93530   0.00000  Uiso   1.00
N164   N     0.64972   0.54590   0.93780   0.00000  Uiso   1.00
C165   C     0.61522   0.51657  -0.02293   0.00000  Uiso   1.00
N166   N     0.61531   0.48985   0.01368   0.00000  Uiso   1.00
N167   N     0.64861   0.49233   0.01144   0.00000  Uiso   1.00
C168   C     0.31531   0.83407   1.01519   0.00000  Uiso   1.00
N169   N     0.34417   0.84436   0.95660   0.00000  Uiso   1.00
N170   N     0.38044   0.87657   0.95606   0.00000  Uiso   1.00
C171   C     0.38899   0.89988   1.01366   0.00000  Uiso   1.00
N172   N     0.36006   0.88973   0.07204   0.00000  Uiso   1.00
N173   N     0.32395   0.85721   0.07306   0.00000  Uiso   1.00
C174   C     0.27570   0.79810   1.01645   0.00000  Uiso   1.00
N175   N     0.25268   0.77905   0.08098   0.00000  Uiso   1.00
N176   N     0.21740   0.74550   0.08194   0.00000  Uiso   1.00
C177   C     0.20357   0.73021   1.01846   0.00000  Uiso   1.00
N178   N     0.22635   0.74954   0.95400   0.00000  Uiso   1.00
N179   N     0.26192   0.78276   0.95298   0.00000  Uiso   1.00
C180   C     0.16571   0.69236   1.01916   0.00000  Uiso   1.00
N181   N     0.14470   0.68294   0.96346   0.00000  Uiso   1.00
N182   N     0.11156   0.64768   0.96188   0.00000  Uiso   1.00
C183   C     0.09864   0.62048   0.01542   0.00000  Uiso   1.00
N184   N     0.11965   0.62992   0.07107   0.00000  Uiso   1.00
N185   N     0.15238   0.66534   0.07332   0.00000  Uiso   1.00
C186   C     0.57185   0.85473  -0.13026   0.00000  Uiso   1.00
N187   N     0.59060   0.88224  -0.08186   0.00000  Uiso   1.00
N188   N     0.58411   0.90939  -0.06914   0.00000  Uiso   1.00
C189   C     0.55882   0.91032  -0.10465   0.00000  Uiso   1.00
N190   N     0.54042   0.88322   0.84586   0.00000  Uiso   1.00
N191   N     0.54681   0.85583   0.83331   0.00000  Uiso   1.00
C192   C     0.57635   0.82274  -0.13714   0.00000  Uiso   1.00
N193   N     0.55467   0.79215   0.82167   0.00000  Uiso   1.00
N194   N     0.55623   0.76162   0.82224   0.00000  Uiso   1.00
C195   C     0.57948   0.76059  -0.13600   0.00000  Uiso   1.00
N196   N     0.60162   0.79147  -0.09599   0.00000  Uiso   1.00
N197   N     0.60010   0.82192  -0.09662   0.00000  Uiso   1.00
C198   C     0.57757   0.72525  -0.12740   0.00000  Uiso   1.00
N199   N     0.59573   0.72262  -0.07601   0.00000  Uiso   1.00
N200   N     0.59032   0.68932  -0.06148   0.00000  Uiso   1.00
C201   C     0.56679   0.65743  -0.09819   0.00000  Uiso   1.00
N202   N     0.54929   0.66021   0.84931   0.00000  Uiso   1.00
N203   N     0.55452   0.69349   0.83505   0.00000  Uiso   1.00
C204   C     0.43395   0.28393   1.12766   0.00000  Uiso   1.00
N205   N     0.45772   0.31590   0.16408   0.00000  Uiso   1.00
N206   N     0.46297   0.34919   0.14984   0.00000  Uiso   1.00
C207   C     0.44477   0.35174   1.09847   0.00000  Uiso   1.00
N208   N     0.42061   0.31968   1.06279   0.00000  Uiso   1.00
N209   N     0.41518   0.28637   1.07732   0.00000  Uiso   1.00
C210   C     0.43177   0.24847   1.13643   0.00000  Uiso   1.00
N211   N     0.40901   0.21738   1.09737   0.00000  Uiso   1.00
N212   N     0.41025   0.18677   1.09809   0.00000  Uiso   1.00
C213   C     0.43431   0.18599   1.13778   0.00000  Uiso   1.00
N214   N     0.45656   0.21677   0.17813   0.00000  Uiso   1.00
N215   N     0.45529   0.24746   0.17746   0.00000  Uiso   1.00
C216   C     0.43872   0.15394   1.13048   0.00000  Uiso   1.00
N217   N     0.46380   0.15272   0.16656   0.00000  Uiso   1.00
N218   N     0.47018   0.12534   0.15353   0.00000  Uiso   1.00
C219   C     0.45175   0.09838   1.10383   0.00000  Uiso   1.00
N220   N     0.42646   0.09945   1.06861   0.00000  Uiso   1.00
N221   N     0.41997   0.12659   1.08182   0.00000  Uiso   1.00
loop_
_geom_bond_atom_site_label_1
_geom_bond_atom_site_label_2
_geom_bond_distance
_geom_bond_site_symmetry_2
_ccdc_geom_bond_type
Y0     O2      2.255   .     S
Y0     O6      2.260   .     S
Y0     O9      2.267   .     S
Y0     O10     2.270   .     S
Y0     O11     2.277   .     S
Y0     O3      2.271   1_554 S
Y0     O7      2.267   1_554 S
Y1     O3      2.266   .     S
Y1     O5      2.269   .     S
Y1     O8      2.276   .     S
Y1     O13     2.253   .     S
Y1     O15     2.257   .     S
Y1     O9      2.269   1_556 S
Y1     O16     2.266   1_556 S
O2     C12     1.284   1_554 A
O3     C14     1.374   .     S
O3     Y0      2.271   1_556 S
C4     O15     1.259   .     A
C4     C207    1.466   .     S
C4     O16     1.260   1_556 A
O5     C14     1.209   .     D
O6     C17     1.259   .     A
O7     Y0      2.267   1_556 S
O7     C17     1.260   1_556 A
O8     C12     1.285   .     A
O9     C19     1.374   .     S
O9     Y1      2.269   1_554 S
O10    C19     1.209   .     D
O11    C18     1.285   .     A
C12    O2      1.284   1_556 A
C12    C165    1.468   1_556 S
O13    C18     1.284   1_556 A
C14    C75     1.467   .     S
O16    Y1      2.266   1_554 S
O16    C4      1.260   1_554 A
C17    C201    1.468   .     S
C17    O7      1.260   1_554 A
C18    O13     1.284   1_554 A
C18    C117    1.468   1_554 S
C19    C63     1.468   .     S
Y20    O26     2.237   .     S
Y20    O30     2.263   .     S
Y20    O31     2.266   .     S
Y20    O22     2.255   1_655 S
Y20    O23     2.268   1_554 S
Y20    O27     2.280   1_554 S
Y20    O29     2.264   1_655 S
Y21    O25     2.264   .     S
Y21    O28     2.265   .     S
Y21    O35     2.236   .     S
Y21    O23     2.264   1_455 S
Y21    O29     2.269   1_556 S
Y21    O33     2.253   1_455 S
Y21    O36     2.279   1_556 S
O22    Y20     2.255   1_455 S
O22    C32     1.284   1_554 A
O23    Y20     2.268   1_556 S
O23    Y21     2.264   1_655 S
O23    C34     1.374   1_655 S
C24    O35     1.256   .     A
C24    C129    1.465   .     S
C24    O36     1.264   1_556 A
O25    C34     1.209   .     D
O26    C37     1.256   .     A
O27    Y20     2.280   1_556 S
O27    C37     1.265   1_556 A
O28    C32     1.283   .     A
O29    C39     1.375   .     S
O29    Y20     2.264   1_455 S
O29    Y21     2.269   1_554 S
O30    C39     1.209   1_655 D
O31    C38     1.283   .     A
C32    O22     1.284   1_556 A
C32    C183    1.463   1_556 S
O33    Y21     2.253   1_655 S
O33    C38     1.283   1_556 A
C34    C81     1.461   .     S
C34    O23     1.374   1_455 S
O36    Y21     2.279   1_554 S
O36    C24     1.264   1_554 A
C37    C153    1.465   .     S
C37    O27     1.265   1_554 A
C38    C135    1.462   .     S
C38    O33     1.283   1_554 A
C39    C93     1.461   .     S
C39    O30     1.209   1_455 D
Y40    O46     2.245   .     S
Y40    O50     2.265   .     S
Y40    O51     2.278   .     S
Y40    O42     2.253   1_545 S
Y40    O43     2.266   1_556 S
Y40    O47     2.278   1_556 S
Y40    O49     2.271   1_545 S
Y41    O45     2.266   .     S
Y41    O48     2.279   .     S
Y41    O55     2.243   .     S
Y41    O43     2.271   1_565 S
Y41    O49     2.265   1_554 S
Y41    O53     2.251   1_565 S
Y41    O56     2.277   1_554 S
O42    Y40     2.253   1_565 S
O42    C52     1.284   1_556 A
O43    C54     1.370   .     S
O43    Y40     2.266   1_554 S
O43    Y41     2.271   1_545 S
C44    O55     1.256   .     A
C44    C189    1.465   .     S
C44    O56     1.262   1_554 A
O45    C54     1.207   1_565 D
O46    C57     1.256   .     A
O47    Y40     2.278   1_554 S
O47    C57     1.262   1_554 A
O48    C52     1.285   .     A
O49    Y40     2.271   1_565 S
O49    Y41     2.265   1_556 S
O49    C59     1.370   1_565 S
O50    C59     1.206   .     D
O51    C58     1.284   .     A
C52    O42     1.284   1_554 A
C52    C171    1.465   1_554 S
O53    Y41     2.251   1_545 S
O53    C58     1.283   1_554 A
C54    C99     1.461   .     S
C54    O45     1.207   1_545 D
O56    Y41     2.277   1_556 S
O56    C44     1.262   1_556 A
C57    C219    1.466   .     S
C57    O47     1.262   1_556 A
C58    O53     1.283   1_556 A
C58    C147    1.463   1_556 S
C59    C111    1.461   .     S
C59    O49     1.370   1_545 S
C60    N61     1.358   .     A
C60    N65     1.359   .     A
C60    C66     1.473   .     S
N61    N62     1.333   .     A
N62    C63     1.358   .     A
C63    N64     1.357   .     A
N64    N65     1.334   .     A
C66    N67     1.358   .     A
C66    N71     1.359   .     A
N67    N68     1.333   .     A
N68    C69     1.359   .     A
C69    N70     1.358   .     A
C69    C72     1.473   .     S
N70    N71     1.333   .     A
C72    N73     1.359   .     A
C72    N77     1.358   .     A
N73    N74     1.333   .     A
N74    C75     1.357   .     A
C75    N76     1.358   .     A
N76    N77     1.333   .     A
C78    N83     1.359   .     A
C78    C84     1.467   .     S
C78    N79     1.357   1_455 A
N79    N80     1.331   .     A
N79    C78     1.357   1_655 A
N80    C81     1.357   1_655 A
C81    N82     1.356   .     A
C81    N80     1.357   1_455 A
N82    N83     1.333   .     A
C84    N85     1.357   .     A
C84    N89     1.358   1_455 A
N85    N86     1.332   .     A
N86    C87     1.358   .     A
C87    C90     1.467   .     S
C87    N88     1.357   1_455 A
N88    N89     1.332   .     A
N88    C87     1.357   1_655 A
N89    C84     1.358   1_655 A
C90    N95     1.357   .     A
C90    N91     1.358   1_455 A
N91    N92     1.333   .     A
N91    C90     1.358   1_655 A
N92    C93     1.356   1_655 A
C93    N94     1.357   .     A
C93    N92     1.356   1_455 A
N94    N95     1.331   .     A
C96    N101    1.356   .     A
C96    C102    1.466   .     S
C96    N97     1.359   1_545 A
N97    N98     1.333   .     A
N97    C96     1.359   1_565 A
N98    C99     1.357   1_565 A
C99    N100    1.357   .     A
C99    N98     1.357   1_545 A
N100   N101    1.331   .     A
C102   N103    1.358   .     A
C102   N107    1.357   1_545 A
N103   N104    1.331   .     A
N104   C105    1.357   .     A
C105   C108    1.466   .     S
C105   N106    1.359   1_545 A
N106   N107    1.332   .     A
N106   C105    1.359   1_565 A
N107   C102    1.357   1_565 A
C108   N113    1.359   .     A
C108   N109    1.356   1_545 A
N109   N110    1.331   .     A
N109   C108    1.356   1_565 A
N110   C111    1.357   1_565 A
C111   N112    1.356   .     A
C111   N110    1.357   1_545 A
N112   N113    1.333   .     A
C114   N119    1.357   .     A
C114   C120    1.469   .     S
C114   N115    1.359   1_556 A
N115   N116    1.334   .     A
N115   C114    1.359   1_554 A
N116   C117    1.359   1_554 A
C117   N118    1.356   .     A
C117   N116    1.359   1_556 A
C117   C18     1.468   1_556 S
N118   N119    1.330   .     A
C120   N121    1.355   .     A
C120   N125    1.360   1_556 A
N121   N122    1.329   .     A
N122   C123    1.356   .     A
C123   C126    1.469   .     S
C123   N124    1.359   1_556 A
N124   N125    1.336   .     A
N124   C123    1.359   1_554 A
N125   C120    1.360   1_554 A
C126   N131    1.355   .     A
C126   N127    1.361   1_556 A
N127   N128    1.337   .     A
N127   C126    1.361   1_554 A
N128   C129    1.360   1_554 A
C129   N130    1.355   .     A
C129   N128    1.360   1_556 A
N130   N131    1.328   .     A
C132   N137    1.358   .     A
C132   C138    1.465   .     S
C132   N133    1.357   1_554 A
N133   N134    1.331   .     A
N133   C132    1.357   1_556 A
N134   C135    1.357   1_556 A
C135   N136    1.357   .     A
C135   N134    1.357   1_554 A
N136   N137    1.333   .     A
C138   N139    1.358   .     A
C138   N143    1.357   1_554 A
N139   N140    1.332   .     A
N140   C141    1.357   .     A
C141   C144    1.465   .     S
C141   N142    1.357   1_554 A
N142   N143    1.332   .     A
N142   C141    1.357   1_556 A
N143   C138    1.357   1_556 A
C144   N149    1.357   .     A
C144   N145    1.357   1_554 A
N145   N146    1.332   .     A
N145   C144    1.357   1_556 A
N146   C147    1.357   1_556 A
C147   N148    1.357   .     A
C147   N146    1.357   1_554 A
C147   C58     1.463   1_554 S
N148   N149    1.332   .     A
C150   N155    1.355   .     A
C150   C156    1.469   .     S
C150   N151    1.361   1_554 A
N151   N152    1.337   .     A
N151   C150    1.361   1_556 A
N152   C153    1.359   1_556 A
C153   N154    1.355   .     A
C153   N152    1.359   1_554 A
N154   N155    1.328   .     A
C156   N157    1.356   .     A
C156   N161    1.359   1_554 A
N157   N158    1.329   .     A
N158   C159    1.355   .     A
C159   C162    1.469   .     S
C159   N160    1.360   1_554 A
N160   N161    1.336   .     A
N160   C159    1.360   1_556 A
N161   C156    1.359   1_556 A
C162   N167    1.357   .     A
C162   N163    1.359   1_554 A
N163   N164    1.335   .     A
N163   C162    1.359   1_556 A
N164   C165    1.359   1_556 A
C165   N166    1.356   .     A
C165   N164    1.359   1_554 A
C165   C12     1.468   1_554 S
N166   N167    1.330   .     A
C168   N169    1.357   .     A
C168   C174    1.466   .     S
C168   N173    1.358   1_556 A
N169   N170    1.332   .     A
N170   C171    1.357   .     A
C171   N172    1.357   1_556 A
C171   C52     1.465   1_556 S
N172   N173    1.333   .     A
N172   C171    1.357   1_554 A
N173   C168    1.358   1_554 A
C174   N179    1.357   .     A
C174   N175    1.358   1_556 A
N175   N176    1.333   .     A
N175   C174    1.358   1_554 A
N176   C177    1.358   1_554 A
C177   N178    1.357   .     A
C177   C180    1.466   .     S
C177   N176    1.358   1_556 A
N178   N179    1.332   .     A
C180   N181    1.358   .     A
C180   N185    1.357   1_556 A
N181   N182    1.333   .     A
N182   C183    1.357   1_556 A
C183   N184    1.357   .     A
C183   N182    1.357   1_554 A
C183   C32     1.463   1_554 S
N184   N185    1.332   .     A
N185   C180    1.357   1_554 A
C186   N187    1.356   .     A
C186   C192    1.471   .     S
C186   N191    1.360   1_554 A
N187   N188    1.329   .     A
N188   C189    1.355   .     A
C189   N190    1.359   1_554 A
N190   N191    1.336   .     A
N190   C189    1.359   1_556 A
N191   C186    1.360   1_556 A
C192   N197    1.357   .     A
C192   N193    1.359   1_554 A
N193   N194    1.335   .     A
N193   C192    1.359   1_556 A
N194   C195    1.360   1_556 A
C195   N196    1.356   .     A
C195   C198    1.472   .     S
C195   N194    1.360   1_554 A
N196   N197    1.331   .     A
C198   N199    1.358   .     A
C198   N203    1.358   1_554 A
N199   N200    1.332   .     A
N200   C201    1.357   .     A
C201   N202    1.358   1_554 A
N202   N203    1.334   .     A
N202   C201    1.358   1_556 A
N203   C198    1.358   1_556 A
C204   N209    1.358   .     A
C204   C210    1.471   .     S
C204   N205    1.358   1_556 A
N205   N206    1.334   .     A
N205   C204    1.358   1_554 A
N206   C207    1.358   1_554 A
C207   N208    1.357   .     A
C207   N206    1.358   1_556 A
N208   N209    1.332   .     A
C210   N211    1.356   .     A
C210   N215    1.360   1_556 A
N211   N212    1.331   .     A
N212   C213    1.357   .     A
C213   C216    1.471   .     S
C213   N214    1.359   1_556 A
N214   N215    1.335   .     A
N214   C213    1.359   1_554 A
N215   C210    1.360   1_554 A
C216   N221    1.356   .     A
C216   N217    1.360   1_556 A
N217   N218    1.336   .     A
N217   C216    1.360   1_554 A
N218   C219    1.359   1_554 A
C219   N220    1.355   .     A
C219   N218    1.359   1_556 A
N220   N221    1.329   .     A
