data_kag+N394+E15
_audit_creation_date              2025-01-21
_audit_creation_method            'Materials Studio'
_symmetry_space_group_name_H-M    'P1'
_symmetry_Int_Tables_number       1
_symmetry_cell_setting            triclinic
loop_
_symmetry_equiv_pos_as_xyz
  x,y,z
_cell_length_a                    21.0429
_cell_length_b                    23.7256
_cell_length_c                    9.5581
_cell_angle_alpha                 91.9855
_cell_angle_beta                  93.1998
_cell_angle_gamma                 110.5250
loop_
_atom_site_label
_atom_site_type_symbol
_atom_site_fract_x
_atom_site_fract_y
_atom_site_fract_z
_atom_site_U_iso_or_equiv
_atom_site_adp_type
_atom_site_occupancy
Pr0    Pr    0.52669   0.56757  -0.01562   0.00000  Uiso   1.00
Pr1    Pr    0.49939   0.42937   1.02185   0.00000  Uiso   1.00
O2     O     0.39285   0.43115   1.06046   0.00000  Uiso   1.00
O3     O     0.41137   0.53259   0.04037   0.00000  Uiso   1.00
O4     O     0.51612   0.64608   0.86720   0.00000  Uiso   1.00
O5     O     0.57902   0.66506   0.06199   0.00000  Uiso   1.00
O6     O     0.54611   0.51520   0.16660   0.00000  Uiso   1.00
O7     O     0.47629   0.56350   0.18929   0.00000  Uiso   1.00
C8     C     0.49042   0.46687   0.75092   0.00000  Uiso   1.00
C9     C     0.37212   0.47685   0.05993   0.00000  Uiso   1.00
C10    C     0.55601   0.68580   0.95693   0.00000  Uiso   1.00
C11    C     0.47253   0.30972   0.03321   0.00000  Uiso   1.00
C12    C     0.64653   0.51565   0.91517   0.00000  Uiso   1.00
C13    C     0.50244   0.53192   0.24991   0.00000  Uiso   1.00
O14    O     0.62498   0.56047  -0.09330   0.00000  Uiso   1.00
O15    O     0.61103   0.46278   0.95683   0.00000  Uiso   1.00
O16    O     0.50967   0.34768   0.12847   0.00000  Uiso   1.00
O17    O     0.45232   0.33300   0.93003   0.00000  Uiso   1.00
O18    O     0.46424   0.48289   0.86538   0.00000  Uiso   1.00
O19    O     0.51696   0.43102   0.77956   0.00000  Uiso   1.00
Pr20   Pr    0.96602   0.42965   1.01104   0.00000  Uiso   1.00
Pr21   Pr    0.05038   0.56735  -0.02741   0.00000  Uiso   1.00
O22    O     0.94128   0.56104  -0.10138   0.00000  Uiso   1.00
O23    O     0.87905   0.46332   0.94674   0.00000  Uiso   1.00
O24    O     0.90268   0.35993   0.14919   0.00000  Uiso   1.00
O25    O     0.92163   0.32924   0.94628   0.00000  Uiso   1.00
O26    O     0.04009   0.48143   0.86103   0.00000  Uiso   1.00
O27    O     0.94618   0.43163   0.76212   0.00000  Uiso   1.00
C28    C     0.04864   0.53147   0.24278   0.00000  Uiso   1.00
C29    C     0.88414   0.51640   0.90674   0.00000  Uiso   1.00
C30    C     0.89466   0.31553   0.06274   0.00000  Uiso   1.00
C31    C     0.12233   0.68145   0.92407   0.00000  Uiso   1.00
C32    C     0.13353   0.47654   0.05923   0.00000  Uiso   1.00
C33    C     0.00119   0.46655   0.74044   0.00000  Uiso   1.00
O34    O     0.07612   0.43117   1.05832   0.00000  Uiso   1.00
O35    O     0.13852   0.53212   0.03669   0.00000  Uiso   1.00
O36    O     0.11570   0.63718   0.83734   0.00000  Uiso   1.00
O37    O     0.09131   0.66767   0.03643   0.00000  Uiso   1.00
O38    O     0.99223   0.51654   0.14879   0.00000  Uiso   1.00
O39    O     0.09952   0.56251   0.19056   0.00000  Uiso   1.00
Pr40   Pr    0.59024   0.03697   0.03381   0.00000  Uiso   1.00
Pr41   Pr    0.43934   0.95453   1.02049   0.00000  Uiso   1.00
O42    O     0.42160   0.04516   0.04974   0.00000  Uiso   1.00
O43    O     0.53478   0.10745   0.06470   0.00000  Uiso   1.00
O44    O     0.68156   0.10937   0.95330   0.00000  Uiso   1.00
O45    O     0.69217   0.07532   0.15715   0.00000  Uiso   1.00
O46    O     0.52249   0.98408   0.19708   0.00000  Uiso   1.00
O47    O     0.56215   0.08207   0.22395   0.00000  Uiso   1.00
C48    C     0.46888   0.98963   0.76040   0.00000  Uiso   1.00
C49    C     0.46929   0.09842   0.05821   0.00000  Uiso   1.00
C50    C     0.71884   0.11337   1.06664   0.00000  Uiso   1.00
C51    C     0.31169   0.87734  -0.04656   0.00000  Uiso   1.00
C52    C     0.55573   0.89578   0.95600   0.00000  Uiso   1.00
C53    C     0.52831   0.03577   0.27588   0.00000  Uiso   1.00
O54    O     0.60301   0.94868   0.96307   0.00000  Uiso   1.00
O55    O     0.49212   0.88626   0.97272   0.00000  Uiso   1.00
O56    O     0.33982   0.88379   0.07788   0.00000  Uiso   1.00
O57    O     0.34784   0.91126   0.86574   0.00000  Uiso   1.00
O58    O     0.50055   0.02142   0.88288   0.00000  Uiso   1.00
O59    O     0.41917   0.94554   0.77946   0.00000  Uiso   1.00
N60    N     0.43911   0.51946   0.58992   0.00000  Uiso   1.00
N61    N     0.44181   0.53581   0.45981   0.00000  Uiso   1.00
C62    C     0.48633   0.51657   0.39504   0.00000  Uiso   1.00
C63    C     0.51322   0.48564   0.48915   0.00000  Uiso   1.00
C64    C     0.48149   0.48899   0.61219   0.00000  Uiso   1.00
H65    H     0.55121   0.46549   0.47225   0.00000  Uiso   1.00
H66    H     0.40871   0.52951   0.66251   0.00000  Uiso   1.00
H67    H     0.41413   0.56080   0.41701   0.00000  Uiso   1.00
N68    N     0.10904   0.53551   0.47272   0.00000  Uiso   1.00
N69    N     0.09633   0.51891   0.60108   0.00000  Uiso   1.00
C70    C     0.02925   0.48834   0.60601   0.00000  Uiso   1.00
C71    C     0.99728   0.48492   0.47209   0.00000  Uiso   1.00
C72    C     0.05057   0.51604   0.39092   0.00000  Uiso   1.00
H73    H     0.94367   0.46455   0.43968   0.00000  Uiso   1.00
H74    H     0.15724   0.56081   0.44261   0.00000  Uiso   1.00
H75    H     0.13336   0.52932   0.68496   0.00000  Uiso   1.00
N76    N     0.48767   1.07458   0.61022   0.00000  Uiso   1.00
N77    N     0.50018   1.08646   0.47901   0.00000  Uiso   1.00
C78    C     0.50132   0.03619   0.41150   0.00000  Uiso   1.00
C79    C     0.48800  -0.01014   0.50155   0.00000  Uiso   1.00
C80    C     0.48084   1.01672   0.62669   0.00000  Uiso   1.00
H81    H     0.48910  -0.05502   0.48202   0.00000  Uiso   1.00
H82    H     0.48476   1.10570   0.68733   0.00000  Uiso   1.00
H83    H     0.50981   1.12878   0.43849   0.00000  Uiso   1.00
N84    N     0.19685   0.40986   0.12693   0.00000  Uiso   1.00
N85    N     0.25957   0.41001   0.12672   0.00000  Uiso   1.00
C86    C     0.30039   0.46384   0.08678   0.00000  Uiso   1.00
C87    C     0.26200   0.50008   1.06190   0.00000  Uiso   1.00
C88    C     0.19629   0.46360   0.08719   0.00000  Uiso   1.00
H89    H     0.27845   0.54466   1.02179   0.00000  Uiso   1.00
H90    H     0.15499   0.37277   0.14991   0.00000  Uiso   1.00
H91    H     0.27361   0.37310   0.14987   0.00000  Uiso   1.00
N92    N     0.80591   0.18318   1.23405   0.00000  Uiso   1.00
N93    N     0.85011   0.23862   1.23353   0.00000  Uiso   1.00
C94    C     0.85841   0.25382   0.09963   0.00000  Uiso   1.00
C95    C     0.81737   0.20615   0.00997   0.00000  Uiso   1.00
C96    C     0.78390   0.16248   1.10020   0.00000  Uiso   1.00
H97    H     0.80687   0.20629  -0.10236   0.00000  Uiso   1.00
H98    H     0.78586   0.16278   1.32483   0.00000  Uiso   1.00
H99    H     0.87045   0.26694   1.32393   0.00000  Uiso   1.00
N100   N     0.75533   0.57812   0.82141   0.00000  Uiso   1.00
N101   N     0.81814   0.57851   0.81910   0.00000  Uiso   1.00
C102   C     0.82065   0.52745   0.87233   0.00000  Uiso   1.00
C103   C     0.75628   0.49267  -0.09095   0.00000  Uiso   1.00
C104   C     0.71650   0.52688   0.87646   0.00000  Uiso   1.00
H105   H     0.74186   0.45109  -0.03717   0.00000  Uiso   1.00
H106   H     0.74034   0.61383   0.79163   0.00000  Uiso   1.00
H107   H     0.85881   0.61421   0.78640   0.00000  Uiso   1.00
N108   N     0.17697   0.76095   0.76406   0.00000  Uiso   1.00
N109   N     0.22622   0.81410  -0.22767   0.00000  Uiso   1.00
C110   C     0.24598   0.83091  -0.09139   0.00000  Uiso   1.00
C111   C     0.20677   0.78676  -0.00856   0.00000  Uiso   1.00
C112   C     0.16398   0.74312   0.89482   0.00000  Uiso   1.00
H113   H     0.21438   0.78309   0.10350   0.00000  Uiso   1.00
H114   H     0.15600   0.73563   0.67030   0.00000  Uiso   1.00
H115   H     0.24967   0.83574  -0.31439   0.00000  Uiso   1.00
N116   N     0.64075   0.78932   0.95466   0.00000  Uiso   1.00
N117   N     0.64085   0.84493   0.95071   0.00000  Uiso   1.00
C118   C     0.57596   0.84279   0.93562   0.00000  Uiso   1.00
C119   C     0.53262   0.78296   0.92666   0.00000  Uiso   1.00
C120   C     0.57591   0.75073   0.94022   0.00000  Uiso   1.00
H121   H     0.47754   0.76571   0.92334   0.00000  Uiso   1.00
H122   H     0.68438   0.77816   0.97025   0.00000  Uiso   1.00
H123   H     0.68470   0.88363   0.96542   0.00000  Uiso   1.00
N124   N     0.38595   0.14998   0.01695   0.00000  Uiso   1.00
N125   N     0.38756   0.20586   0.00648   0.00000  Uiso   1.00
C126   C     0.45134   0.24418   0.04251   0.00000  Uiso   1.00
C127   C     0.49238   0.21147   0.07765   0.00000  Uiso   1.00
C128   C     0.44897   0.15171   0.05824   0.00000  Uiso   1.00
H129   H     0.54668   0.22852   0.10470   0.00000  Uiso   1.00
H130   H     0.34302   0.11154  -0.00933   0.00000  Uiso   1.00
H131   H     0.34569   0.21747  -0.02589   0.00000  Uiso   1.00
loop_
_geom_bond_atom_site_label_1
_geom_bond_atom_site_label_2
_geom_bond_distance
_geom_bond_site_symmetry_2
_ccdc_geom_bond_type
Pr0    O3      2.372   .     S
Pr0    O5      2.262   .     S
Pr0    O6      2.274   .     S
Pr0    O7      2.268   .     S
Pr0    O14     2.294   .     S
Pr0    O4      2.276   1_554 S
Pr0    O18     2.209   1_554 S
Pr1    O2      2.307   .     S
Pr1    O15     2.329   .     S
Pr1    O17     2.270   .     S
Pr1    O18     2.250   .     S
Pr1    O19     2.365   .     S
Pr1    O6      2.297   1_556 S
Pr1    O16     2.291   1_556 S
O2     C9      1.303   1_556 A
O3     C9      1.317   .     A
O4     C10     1.279   .     A
O4     Pr0     2.276   1_556 S
O5     C10     1.278   1_554 A
O6     C13     1.397   .     S
O6     Pr1     2.297   1_554 S
O7     C13     1.218   .     D
C8     O18     1.353   .     S
C8     O19     1.201   .     D
C8     C64     1.469   .     S
C9     C86     1.470   .     S
C9     O2      1.303   1_554 A
C10    C120    1.465   .     S
C10    O5      1.278   1_556 A
C11    O16     1.273   .     A
C11    C126    1.467   .     S
C11    O17     1.270   1_554 A
C12    O15     1.304   .     A
C12    C104    1.473   .     S
C12    O14     1.297   1_556 A
C13    C62     1.474   .     S
O14    C12     1.297   1_554 A
O16    Pr1     2.291   1_554 S
O17    C11     1.270   1_556 A
O18    Pr0     2.209   1_556 S
Pr20   O23     2.302   .     S
Pr20   O25     2.281   .     S
Pr20   O27     2.397   .     S
Pr20   O24     2.249   1_556 S
Pr20   O26     2.241   1_655 S
Pr20   O34     2.323   1_655 S
Pr20   O38     2.285   1_556 S
Pr21   O35     2.347   .     S
Pr21   O37     2.277   .     S
Pr21   O39     2.298   .     S
Pr21   O22     2.316   1_455 S
Pr21   O26     2.203   1_554 S
Pr21   O36     2.248   1_554 S
Pr21   O38     2.263   1_455 S
O22    Pr21    2.316   1_655 S
O22    C29     1.302   1_554 A
O23    C29     1.299   .     A
O24    C30     1.273   .     A
O24    Pr20    2.249   1_554 S
O25    C30     1.278   1_556 A
O26    C33     1.337   .     S
O26    Pr20    2.241   1_455 S
O26    Pr21    2.203   1_556 S
O27    C33     1.198   1_655 D
C28    O39     1.212   .     D
C28    C72     1.477   .     S
C28    O38     1.380   1_455 S
C29    C102    1.471   .     S
C29    O22     1.302   1_556 A
C30    C94     1.460   .     S
C30    O25     1.278   1_554 A
C31    O36     1.278   .     A
C31    C112    1.464   .     S
C31    O37     1.280   1_556 A
C32    O35     1.312   .     A
C32    C88     1.470   .     S
C32    O34     1.306   1_554 A
C33    C70     1.478   .     S
C33    O27     1.198   1_455 D
O34    Pr20    2.323   1_455 S
O34    C32     1.306   1_556 A
O36    Pr21    2.248   1_556 S
O37    C31     1.280   1_554 A
O38    Pr20    2.285   1_554 S
O38    Pr21    2.263   1_655 S
O38    C28     1.380   1_655 S
Pr40   O43     2.370   .     S
Pr40   O45     2.257   .     S
Pr40   O47     2.286   .     S
Pr40   O44     2.276   1_554 S
Pr40   O46     2.274   1_545 S
Pr40   O54     2.288   1_544 S
Pr40   O58     2.225   1_554 S
Pr41   O55     2.309   .     S
Pr41   O57     2.267   .     S
Pr41   O59     2.308   .     S
Pr41   O42     2.318   1_566 S
Pr41   O46     2.265   1_556 S
Pr41   O56     2.287   1_556 S
Pr41   O58     2.193   1_565 S
O42    C49     1.306   .     A
O42    Pr41    2.318   1_544 S
O43    C49     1.316   .     A
O44    C50     1.282   .     A
O44    Pr40    2.276   1_556 S
O45    C50     1.277   1_554 A
O46    Pr40    2.274   1_565 S
O46    Pr41    2.265   1_554 S
O46    C53     1.381   1_565 S
O47    C53     1.220   .     D
C48    O59     1.220   .     D
C48    C80     1.445   .     S
C48    O58     1.372   1_565 S
C49    C128    1.470   .     S
C50    C96     1.463   .     S
C50    O45     1.277   1_556 A
C51    O56     1.278   .     A
C51    C110    1.464   .     S
C51    O57     1.272   1_554 A
C52    O54     1.296   .     A
C52    O55     1.297   .     A
C52    C118    1.472   .     S
C53    C78     1.445   .     S
C53    O46     1.381   1_545 S
O54    Pr40    2.288   1_566 S
O56    Pr41    2.287   1_554 S
O57    C51     1.272   1_556 A
O58    Pr40    2.225   1_556 S
O58    Pr41    2.193   1_545 S
O58    C48     1.372   1_545 S
N60    N61     1.314   .     A
N60    C64     1.344   .     A
N60    H66     1.045   .     S
N61    C62     1.347   .     A
N61    H67     1.044   .     S
C62    C63     1.396   .     A
C63    C64     1.398   .     A
C63    H65     1.082   .     S
N68    N69     1.315   .     A
N68    C72     1.344   .     A
N68    H74     1.044   .     S
N69    C70     1.346   .     A
N69    H75     1.045   .     S
C70    C71     1.399   1_455 A
C71    H73     1.082   .     S
C71    C70     1.399   1_655 A
C71    C72     1.400   1_655 A
C72    C71     1.400   1_455 A
N76    N77     1.316   .     A
N76    C80     1.345   .     A
N76    H82     1.045   .     S
N77    H83     1.045   .     S
N77    C78     1.345   1_565 A
C78    C79     1.380   .     A
C78    N77     1.345   1_545 A
C79    H81     1.083   .     S
C79    C80     1.376   1_545 A
C80    C79     1.376   1_565 A
N84    N85     1.319   .     A
N84    C88     1.347   .     A
N84    H90     1.044   .     S
N85    C86     1.347   .     A
N85    H91     1.045   .     S
C86    C87     1.389   1_554 A
C87    H89     1.082   .     S
C87    C86     1.389   1_556 A
C87    C88     1.390   1_556 A
C88    C87     1.390   1_554 A
N92    N93     1.318   .     A
N92    C96     1.350   .     A
N92    H98     1.045   .     S
N93    H99     1.048   .     S
N93    C94     1.346   1_556 A
C94    C95     1.387   .     A
C94    N93     1.346   1_554 A
C95    H97     1.084   .     S
C95    C96     1.390   1_554 A
C96    C95     1.390   1_556 A
N100   N101    1.320   .     A
N100   C104    1.348   .     A
N100   H106    1.045   .     S
N101   C102    1.347   .     A
N101   H107    1.043   .     S
C102   C103    1.389   1_556 A
C103   H105    1.083   .     S
C103   C102    1.389   1_554 A
C103   C104    1.386   1_554 A
C104   C103    1.386   1_556 A
N108   C112    1.345   .     A
N108   H114    1.045   .     S
N108   N109    1.318   1_556 A
N109   C110    1.348   .     A
N109   H115    1.045   .     S
N109   N108    1.318   1_554 A
C110   C111    1.389   .     A
C111   H113    1.085   .     S
C111   C112    1.387   1_554 A
C112   C111    1.387   1_556 A
N116   N117    1.320   .     A
N116   C120    1.346   .     A
N116   H122    1.046   .     S
N117   C118    1.348   .     A
N117   H123    1.047   .     S
C118   C119    1.389   .     A
C119   C120    1.383   .     A
C119   H121    1.084   .     S
N124   N125    1.322   .     A
N124   C128    1.348   .     A
N124   H130    1.045   .     S
N125   C126    1.348   .     A
N125   H131    1.046   .     S
C126   C127    1.384   .     A
C127   C128    1.390   .     A
C127   H129    1.082   .     S
