data_kag+N205+E14
_audit_creation_date              2025-01-21
_audit_creation_method            'Materials Studio'
_symmetry_space_group_name_H-M    'P1'
_symmetry_Int_Tables_number       1
_symmetry_cell_setting            triclinic
loop_
_symmetry_equiv_pos_as_xyz
  x,y,z
_cell_length_a                    27.6648
_cell_length_b                    27.5198
_cell_length_c                    10.2293
_cell_angle_alpha                 98.7128
_cell_angle_beta                  80.4169
_cell_angle_gamma                 120.1222
loop_
_atom_site_label
_atom_site_type_symbol
_atom_site_fract_x
_atom_site_fract_y
_atom_site_fract_z
_atom_site_U_iso_or_equiv
_atom_site_adp_type
_atom_site_occupancy
Y0     Y     0.56674   0.49081   0.00156   0.00000  Uiso   1.00
Y1     Y     0.42694   0.50681   1.00643   0.00000  Uiso   1.00
C2     C     0.48689   0.62032   0.00231   0.00000  Uiso   1.00
C3     C     0.48811   0.50480   0.22918   0.00000  Uiso   1.00
C4     C     0.67737   0.52624   1.00080   0.00000  Uiso   1.00
C5     C     0.50975   0.37749   1.01079   0.00000  Uiso   1.00
C6     C     0.50409   0.49068   0.77783   0.00000  Uiso   1.00
C7     C     0.31783   0.47490  -0.00418   0.00000  Uiso   1.00
O8     O     0.47926   0.58668   0.89979   0.00000  Uiso   1.00
O9     O     0.46655   0.59515   0.10721   0.00000  Uiso   1.00
O10    O     0.53166   0.53565   0.15482   0.00000  Uiso   1.00
O11    O     0.44078   0.47767   0.18267   0.00000  Uiso   1.00
O12    O     0.65309   0.51321   0.89728   0.00000  Uiso   1.00
O13    O     0.64526   0.52489   0.10475   0.00000  Uiso   1.00
O14    O     0.52192   0.41173   0.11239   0.00000  Uiso   1.00
O15    O     0.52391   0.40187   0.90539   0.00000  Uiso   1.00
O16    O     0.46036   0.46053   0.85269   0.00000  Uiso   1.00
O17    O     0.55140   0.51825   0.82449   0.00000  Uiso   1.00
O18    O     0.33915   0.48342   0.10230   0.00000  Uiso   1.00
O19    O     0.35184   0.47847   0.89458   0.00000  Uiso   1.00
Y20    Y     0.08112   0.57334   0.01683   0.00000  Uiso   1.00
Y21    Y     0.92107   0.43730   0.97314   0.00000  Uiso   1.00
C22    C     0.86694   0.49741   0.98858   0.00000  Uiso   1.00
C23    C    -0.01245   0.50068   0.21865   0.00000  Uiso   1.00
C24    C     0.15925   0.68339   1.04602   0.00000  Uiso   1.00
C25    C     0.13297   0.51090  -0.00085   0.00000  Uiso   1.00
C26    C     0.01418   0.51124   0.77245   0.00000  Uiso   1.00
C27    C     0.84483   0.32645  -0.05460   0.00000  Uiso   1.00
O28    O     0.88906   0.48420   0.88168   0.00000  Uiso   1.00
O29    O     0.87625   0.48294   0.08865   0.00000  Uiso   1.00
O30    O     0.00392   0.54548   0.16298   0.00000  Uiso   1.00
O31    O     0.96470   0.45301   0.15311   0.00000  Uiso   1.00
O32    O     0.14135   0.65765   0.93700   0.00000  Uiso   1.00
O33    O     0.13379   0.65314   0.14234   0.00000  Uiso   1.00
O34    O     0.10953   0.52259   0.10594   0.00000  Uiso   1.00
O35    O     0.12601   0.52805   0.90013   0.00000  Uiso   1.00
O36    O     0.99846   0.46640   0.82723   0.00000  Uiso   1.00
O37    O     0.03711   0.55878   0.83843   0.00000  Uiso   1.00
O38    O     0.86261   0.35269   0.05406   0.00000  Uiso   1.00
O39    O     0.86922   0.35680   0.84897   0.00000  Uiso   1.00
Y40    Y     0.51336   0.08068   0.00306   0.00000  Uiso   1.00
Y41    Y     0.49357   0.92181   1.00651   0.00000  Uiso   1.00
C42    C     0.37993   0.86996   1.03876   0.00000  Uiso   1.00
C43    C     0.50934   0.01475   0.22720   0.00000  Uiso   1.00
C44    C     0.47915   0.15766   1.01265   0.00000  Uiso   1.00
C45    C     0.62692   0.13534  -0.03891   0.00000  Uiso   1.00
C46    C     0.49978  -0.01154   0.78290   0.00000  Uiso   1.00
C47    C     0.52448   0.84261   0.00022   0.00000  Uiso   1.00
O48    O     0.40961   0.88889   1.13443   0.00000  Uiso   1.00
O49    O     0.40921   0.88128  -0.07185   0.00000  Uiso   1.00
O50    O     0.48355   0.03726   0.19217   0.00000  Uiso   1.00
O51    O     0.53886   0.99979   0.14002   0.00000  Uiso   1.00
O52    O     0.48326   0.12847   0.90850   0.00000  Uiso   1.00
O53    O     0.48851   0.14381   0.11347   0.00000  Uiso   1.00
O54    O     0.59554   0.11779  -0.13091   0.00000  Uiso   1.00
O55    O     0.59947   0.12108   1.07270   0.00000  Uiso   1.00
O56    O     0.52540   0.96590   0.81838   0.00000  Uiso   1.00
O57    O     0.46941   0.00245   0.86963   0.00000  Uiso   1.00
O58    O     0.51786   0.87012   0.10509   0.00000  Uiso   1.00
O59    O     0.51936   0.85924   0.89795   0.00000  Uiso   1.00
C60    C     0.54230   0.53717   0.42735   0.00000  Uiso   1.00
C61    C     0.49253   0.50034   0.36857   0.00000  Uiso   1.00
C62    C     0.44660   0.46025   0.44547   0.00000  Uiso   1.00
C63    C     0.45031   0.45717   0.57850   0.00000  Uiso   1.00
C64    C     0.49990   0.49432   0.63762   0.00000  Uiso   1.00
C65    C     0.54593   0.53422   0.56045   0.00000  Uiso   1.00
H66    H     0.57825   0.56886   0.37110   0.00000  Uiso   1.00
H67    H     0.40771   0.43117   0.40302   0.00000  Uiso   1.00
H68    H     0.41436   0.42552   0.63494   0.00000  Uiso   1.00
H69    H     0.58469   0.56354   0.60308   0.00000  Uiso   1.00
C70    C    -0.02619   0.45667   0.56193   0.00000  Uiso   1.00
C71    C     0.00614   0.50856   0.63181   0.00000  Uiso   1.00
C72    C     1.03276   0.55793   0.56441   0.00000  Uiso   1.00
C73    C     1.02705   0.55548   0.42994   0.00000  Uiso   1.00
C74    C    -0.00503   0.50352   0.35986   0.00000  Uiso   1.00
C75    C    -0.03173   0.45417   0.42737   0.00000  Uiso   1.00
H76    H    -0.04748   0.41796   0.61125   0.00000  Uiso   1.00
H77    H     1.05879   0.59851   0.61495   0.00000  Uiso   1.00
H78    H     1.04820   0.59422   0.38075   0.00000  Uiso   1.00
H79    H    -0.05742   0.41359   0.37666   0.00000  Uiso   1.00
C80    C     0.53426  -0.01800   0.40837   0.00000  Uiso   1.00
C81    C     0.50652   0.00755   0.36913   0.00000  Uiso   1.00
C82    C     0.47734   0.02761   0.46731   0.00000  Uiso   1.00
C83    C     0.47569   0.02202   0.60186   0.00000  Uiso   1.00
C84    C     0.50335  -0.00363   0.64109   0.00000  Uiso   1.00
C85    C     0.53257  -0.02359   0.54302   0.00000  Uiso   1.00
H86    H     0.55723  -0.03377   0.33519   0.00000  Uiso   1.00
H87    H     0.45562   0.04762   0.44039   0.00000  Uiso   1.00
H88    H     0.45261   0.03768   0.67500   0.00000  Uiso   1.00
H89    H     0.55417  -0.04373   0.56992   0.00000  Uiso   1.00
C90    C     0.24564   0.47162   0.87154   0.00000  Uiso   1.00
C91    C     0.26160   0.46802  -0.00838   0.00000  Uiso   1.00
C92    C     0.22788   0.46781   0.11091   0.00000  Uiso   1.00
C93    C     0.18230   0.47670   0.11188   0.00000  Uiso   1.00
C94    C     0.16982   0.48602  -0.00669   0.00000  Uiso   1.00
C95    C     0.20011   0.48066   0.87239   0.00000  Uiso   1.00
H96    H     0.27097   0.47210   0.77875   0.00000  Uiso   1.00
H97    H     0.23885   0.46441   0.20459   0.00000  Uiso   1.00
H98    H     0.15910   0.47977   0.20575   0.00000  Uiso   1.00
H99    H     0.19134   0.48771   0.77992   0.00000  Uiso   1.00
C100   C     0.77287   0.23869   0.05013   0.00000  Uiso   1.00
C101   C     0.79647   0.26893  -0.06374   0.00000  Uiso   1.00
C102   C     0.76767   0.24824  -0.17778   0.00000  Uiso   1.00
C103   C     0.71386   0.20118  -0.17385   0.00000  Uiso   1.00
C104   C     0.68807   0.17419  -0.05565   0.00000  Uiso   1.00
C105   C     0.71905   0.19179   0.05430   0.00000  Uiso   1.00
H106   H     0.79467   0.25333   0.13886   0.00000  Uiso   1.00
H107   H     0.78505   0.27065  -0.26701   0.00000  Uiso   1.00
H108   H     0.69091   0.18881  -0.25998   0.00000  Uiso   1.00
H109   H     0.70036   0.17150   0.14644   0.00000  Uiso   1.00
C110   C     0.81318   0.52638   0.87595   0.00000  Uiso   1.00
C111   C     0.82895   0.52093   0.99423   0.00000  Uiso   1.00
C112   C     0.80081   0.52860   0.11633   0.00000  Uiso   1.00
C113   C     0.75418   0.53604   0.11935   0.00000  Uiso   1.00
C114   C     0.73474   0.53533   1.00031   0.00000  Uiso   1.00
C115   C     0.76630   0.53333   0.87897   0.00000  Uiso   1.00
H116   H     0.83431   0.52079   0.78049   0.00000  Uiso   1.00
H117   H     0.81235   0.52472   0.20885   0.00000  Uiso   1.00
H118   H     0.73073   0.53768   0.21434   0.00000  Uiso   1.00
H119   H     0.75241   0.53300   0.78576   0.00000  Uiso   1.00
C120   C     0.28958   0.81472   0.93799   0.00000  Uiso   1.00
C121   C     0.31837   0.83293   1.05173   0.00000  Uiso   1.00
C122   C     0.28994   0.80769   1.17086   0.00000  Uiso   1.00
C123   C     0.23542   0.76162   1.17257   0.00000  Uiso   1.00
C124   C     0.20877   0.74019   1.05538   0.00000  Uiso   1.00
C125   C     0.23519   0.76893   0.93997   0.00000  Uiso   1.00
H126   H     0.31049   0.83346   0.84494   0.00000  Uiso   1.00
H127   H     0.31129   0.82054   1.25980   0.00000  Uiso   1.00
H128   H     0.21592   0.74027   1.26283   0.00000  Uiso   1.00
H129   H     0.21533   0.75357   0.84860   0.00000  Uiso   1.00
C130   C     0.53107   0.76015  -0.12174   0.00000  Uiso   1.00
C131   C     0.53080   0.79232  -0.00150   0.00000  Uiso   1.00
C132   C     0.52638   0.77078   0.11850   0.00000  Uiso   1.00
C133   C     0.51690   0.71588   0.11910   0.00000  Uiso   1.00
C134   C     0.51150   0.68176  -0.00032   0.00000  Uiso   1.00
C135   C     0.52140   0.70521  -0.12114   0.00000  Uiso   1.00
H136   H     0.53467   0.77591  -0.21570   0.00000  Uiso   1.00
H137   H     0.52562   0.79454   0.21273   0.00000  Uiso   1.00
H138   H     0.50972   0.69881   0.21362   0.00000  Uiso   1.00
H139   H     0.51820   0.67997  -0.21483   0.00000  Uiso   1.00
C140   C     0.47627   0.29241   1.13383   0.00000  Uiso   1.00
C141   C     0.48712   0.31627   1.01300   0.00000  Uiso   1.00
C142   C     0.48444   0.28300   0.89298   0.00000  Uiso   1.00
C143   C     0.47704   0.22890   0.89321   0.00000  Uiso   1.00
C144   C     0.47123   0.20692   1.01383   0.00000  Uiso   1.00
C145   C     0.46811   0.23795   1.13429   0.00000  Uiso   1.00
H146   H     0.47713   0.31692   1.22792   0.00000  Uiso   1.00
H147   H     0.49184   0.30013  -0.20139   0.00000  Uiso   1.00
H148   H     0.48035   0.20614   0.79876   0.00000  Uiso   1.00
H149   H     0.46357   0.22188   1.22849   0.00000  Uiso   1.00
loop_
_geom_bond_atom_site_label_1
_geom_bond_atom_site_label_2
_geom_bond_distance
_geom_bond_site_symmetry_2
_ccdc_geom_bond_type
Y0     O10     2.243   .     S
Y0     O13     2.265   .     S
Y0     O14     2.265   .     S
Y0     O12     2.258   1_554 S
Y0     O15     2.261   1_554 S
Y0     O17     2.241   1_554 S
Y1     O8      2.264   .     S
Y1     O16     2.245   .     S
Y1     O19     2.264   .     S
Y1     O9      2.262   1_556 S
Y1     O11     2.240   1_556 S
Y1     O18     2.259   1_556 S
C2     O9      1.257   .     A
C2     C134    1.475   .     S
C2     O8      1.259   1_554 A
C3     O10     1.271   .     A
C3     O11     1.271   .     A
C3     C61     1.480   .     S
C4     O12     1.257   .     A
C4     C114    1.477   .     S
C4     O13     1.259   1_556 A
C5     O15     1.257   .     A
C5     C141    1.476   .     S
C5     O14     1.258   1_556 A
C6     O16     1.271   .     A
C6     O17     1.272   .     A
C6     C64     1.480   .     S
C7     O18     1.260   .     A
C7     C91     1.477   .     S
C7     O19     1.257   1_554 A
O8     C2      1.259   1_556 A
O9     Y1      2.262   1_554 S
O11    Y1      2.240   1_554 S
O12    Y0      2.258   1_556 S
O13    C4      1.259   1_554 A
O14    C5      1.258   1_554 A
O15    Y0      2.261   1_556 S
O17    Y0      2.241   1_556 S
O18    Y1      2.259   1_554 S
O19    C7      1.257   1_556 A
Y20    O30     2.242   .     S
Y20    O33     2.270   .     S
Y20    O34     2.264   .     S
Y20    O32     2.251   1_554 S
Y20    O35     2.265   1_554 S
Y20    O37     2.236   1_554 S
Y21    O28     2.262   .     S
Y21    O36     2.243   .     S
Y21    O39     2.268   .     S
Y21    O29     2.266   1_556 S
Y21    O31     2.238   1_556 S
Y21    O38     2.254   1_556 S
C22    O28     1.258   .     A
C22    C111    1.476   .     S
C22    O29     1.260   1_556 A
C23    O30     1.271   .     A
C23    C74     1.478   .     S
C23    O31     1.270   1_455 A
C24    O32     1.258   .     A
C24    C124    1.476   .     S
C24    O33     1.260   1_556 A
C25    O34     1.259   .     A
C25    C94     1.477   .     S
C25    O35     1.260   1_554 A
C26    O37     1.270   .     A
C26    C71     1.477   .     S
C26    O36     1.271   1_455 A
C27    O38     1.257   .     A
C27    C101    1.475   .     S
C27    O39     1.260   1_554 A
O29    Y21     2.266   1_554 S
O29    C22     1.260   1_554 A
O31    Y21     2.238   1_554 S
O31    C23     1.270   1_655 A
O32    Y20     2.251   1_556 S
O33    C24     1.260   1_554 A
O35    Y20     2.265   1_556 S
O35    C25     1.260   1_556 A
O36    C26     1.271   1_655 A
O37    Y20     2.236   1_556 S
O38    Y21     2.254   1_554 S
O39    C27     1.260   1_556 A
Y40    O50     2.243   .     S
Y40    O53     2.261   .     S
Y40    O54     2.268   .     S
Y40    O52     2.261   1_554 S
Y40    O55     2.255   1_554 S
Y40    O57     2.239   1_554 S
Y41    O48     2.272   .     S
Y41    O56     2.241   .     S
Y41    O59     2.258   .     S
Y41    O49     2.252   1_556 S
Y41    O51     2.241   1_556 S
Y41    O58     2.261   1_556 S
C42    O48     1.260   .     A
C42    C121    1.477   .     S
C42    O49     1.258   1_556 A
C43    O50     1.272   .     A
C43    C81     1.479   .     S
C43    O51     1.271   1_545 A
C44    O52     1.259   .     A
C44    C144    1.476   .     S
C44    O53     1.258   1_556 A
C45    O54     1.259   .     A
C45    C104    1.476   .     S
C45    O55     1.258   1_554 A
C46    O57     1.271   .     A
C46    C84     1.479   .     S
C46    O56     1.271   1_545 A
C47    O58     1.259   .     A
C47    C131    1.476   .     S
C47    O59     1.258   1_554 A
O49    Y41     2.252   1_554 S
O49    C42     1.258   1_554 A
O51    Y41     2.241   1_554 S
O51    C43     1.271   1_565 A
O52    Y40     2.261   1_556 S
O53    C44     1.258   1_554 A
O55    Y40     2.255   1_556 S
O55    C45     1.258   1_556 A
O56    C46     1.271   1_565 A
O57    Y40     2.239   1_556 S
O58    Y41     2.261   1_554 S
O59    C47     1.258   1_556 A
C60    C61     1.405   .     A
C60    C65     1.399   .     A
C60    H66     1.082   .     S
C61    C62     1.405   .     A
C62    C63     1.400   .     A
C62    H67     1.083   .     S
C63    C64     1.405   .     A
C63    H68     1.083   .     S
C64    C65     1.405   .     A
C65    H69     1.083   .     S
C70    C71     1.404   .     A
C70    C75     1.398   .     A
C70    H76     1.082   .     S
C71    C72     1.405   1_455 A
C72    C73     1.398   .     A
C72    H77     1.084   .     S
C72    C71     1.405   1_655 A
C73    H78     1.082   .     S
C73    C74     1.405   1_655 A
C74    C75     1.405   .     A
C74    C73     1.405   1_455 A
C75    H79     1.083   .     S
C80    C81     1.405   .     A
C80    C85     1.400   .     A
C80    H86     1.083   .     S
C81    C82     1.405   .     A
C82    C83     1.399   .     A
C82    H87     1.083   .     S
C83    C84     1.405   .     A
C83    H88     1.083   .     S
C84    C85     1.404   .     A
C85    H89     1.083   .     S
C90    C95     1.400   .     A
C90    H96     1.079   .     S
C90    C91     1.405   1_556 A
C91    C92     1.406   .     A
C91    C90     1.405   1_554 A
C92    C93     1.398   .     A
C92    H97     1.082   .     S
C93    C94     1.407   .     A
C93    H98     1.080   .     S
C94    C95     1.406   1_554 A
C95    H99     1.082   .     S
C95    C94     1.406   1_556 A
C100   C101    1.404   .     A
C100   C105    1.397   .     A
C100   H106    1.085   .     S
C101   C102    1.405   .     A
C102   C103    1.398   .     A
C102   H107    1.082   .     S
C103   C104    1.405   .     A
C103   H108    1.083   .     S
C104   C105    1.405   .     A
C105   H109    1.084   .     S
C110   C111    1.405   .     A
C110   C115    1.398   .     A
C110   H116    1.083   .     S
C111   C112    1.404   1_556 A
C112   C113    1.399   .     A
C112   H117    1.084   .     S
C112   C111    1.404   1_554 A
C113   H118    1.083   .     S
C113   C114    1.404   1_554 A
C114   C115    1.405   .     A
C114   C113    1.404   1_556 A
C115   H119    1.083   .     S
C120   C121    1.404   .     A
C120   C125    1.395   .     A
C120   H126    1.083   .     S
C121   C122    1.405   .     A
C122   C123    1.400   .     A
C122   H127    1.083   .     S
C123   C124    1.404   .     A
C123   H128    1.081   .     S
C124   C125    1.403   .     A
C125   H129    1.083   .     S
C130   C131    1.404   .     A
C130   C135    1.398   .     A
C130   H136    1.083   .     S
C131   C132    1.404   .     A
C132   C133    1.398   .     A
C132   H137    1.083   .     S
C133   C134    1.403   .     A
C133   H138    1.084   .     S
C134   C135    1.404   .     A
C135   H139    1.083   .     S
C140   C141    1.405   .     A
C140   C145    1.400   .     A
C140   H146    1.085   .     S
C141   C142    1.405   .     A
C142   C143    1.397   .     A
C142   H147    1.082   1_556 S
C143   C144    1.406   .     A
C143   H148    1.086   .     S
C144   C145    1.405   .     A
C145   H149    1.083   .     S
H147   C142    1.082   1_554 S
