data_kag+N205+E183
_audit_creation_date              2025-01-21
_audit_creation_method            'Materials Studio'
_symmetry_space_group_name_H-M    'P1'
_symmetry_Int_Tables_number       1
_symmetry_cell_setting            triclinic
loop_
_symmetry_equiv_pos_as_xyz
  x,y,z
_cell_length_a                    31.8224
_cell_length_b                    33.1029
_cell_length_c                    11.1105
_cell_angle_alpha                 68.0028
_cell_angle_beta                  86.7205
_cell_angle_gamma                 119.4506
loop_
_atom_site_label
_atom_site_type_symbol
_atom_site_fract_x
_atom_site_fract_y
_atom_site_fract_z
_atom_site_U_iso_or_equiv
_atom_site_adp_type
_atom_site_occupancy
Y0     Y     0.55431   0.47307  -0.04404   0.00000  Uiso   1.00
Y1     Y     0.44622   0.53186   1.04706   0.00000  Uiso   1.00
C2     C     0.49810   0.62679   0.03848   0.00000  Uiso   1.00
C3     C     0.50150   0.47687   0.19347   0.00000  Uiso   1.00
C4     C     0.65432   0.51344   0.89853   0.00000  Uiso   1.00
C5     C     0.50273   0.37847   0.96251   0.00000  Uiso   1.00
C6     C     0.49900   0.52804   0.80954   0.00000  Uiso   1.00
C7     C     0.34615   0.49122   0.10684   0.00000  Uiso   1.00
O8     O     0.49174   0.62011   0.93492   0.00000  Uiso   1.00
O9     O     0.48086   0.58456   0.14502   0.00000  Uiso   1.00
O10    O     0.53349   0.46725   0.16263   0.00000  Uiso   1.00
O11    O     0.47224   0.47717   0.12040   0.00000  Uiso   1.00
O12    O     0.63273   0.51885   0.80734   0.00000  Uiso   1.00
O13    O     0.62465   0.48932   0.01649   0.00000  Uiso   1.00
O14    O     0.50830   0.38478   0.06686   0.00000  Uiso   1.00
O15    O     0.52056   0.42091   0.85616   0.00000  Uiso   1.00
O16    O     0.46697   0.53763   0.84045   0.00000  Uiso   1.00
O17    O     0.52826   0.52775   0.88258   0.00000  Uiso   1.00
O18    O     0.36825   0.48672   0.19711   0.00000  Uiso   1.00
O19    O     0.37533   0.51455   0.98861   0.00000  Uiso   1.00
Y20    Y     0.08352   0.56802  -0.01490   0.00000  Uiso   1.00
Y21    Y     0.91824   0.43790   1.01519   0.00000  Uiso   1.00
C22    C     0.87482   0.49171   0.93355   0.00000  Uiso   1.00
C23    C    -0.02593   0.48712   0.18765   0.00000  Uiso   1.00
C24    C     0.14381   0.66599   0.95328   0.00000  Uiso   1.00
C25    C     0.12629   0.51370   0.07002   0.00000  Uiso   1.00
C26    C     0.02778   0.51881   0.81255   0.00000  Uiso   1.00
C27    C     0.85819   0.34017   0.04524   0.00000  Uiso   1.00
O28    O     0.90236   0.49021   0.85095   0.00000  Uiso   1.00
O29    O     0.87168   0.46725   0.05537   0.00000  Uiso   1.00
O30    O    -0.00101   0.52507   0.06868   0.00000  Uiso   1.00
O31    O     0.93659   0.44396   0.20233   0.00000  Uiso   1.00
O32    O     0.14468   0.65415   0.85809   0.00000  Uiso   1.00
O33    O     0.10925   0.62811   0.06115   0.00000  Uiso   1.00
O34    O     0.09920   0.51611   0.15122   0.00000  Uiso   1.00
O35    O     0.12934   0.53753   0.94786   0.00000  Uiso   1.00
O36    O     1.00278   0.48093   0.93156   0.00000  Uiso   1.00
O37    O     0.06536   0.56191   0.79784   0.00000  Uiso   1.00
O38    O     0.85767   0.35153   0.14152   0.00000  Uiso   1.00
O39    O     0.89232   0.37840   0.93707   0.00000  Uiso   1.00
Y40    Y     0.52905   0.08974  -0.02719   0.00000  Uiso   1.00
Y41    Y     0.47299   0.91653   1.02493   0.00000  Uiso   1.00
C42    C     0.38085   0.87456   0.98696   0.00000  Uiso   1.00
C43    C     0.47887  -0.02747   0.19996   0.00000  Uiso   1.00
C44    C     0.49131   0.14775   0.96433   0.00000  Uiso   1.00
C45    C     0.62122   0.13182   0.01054   0.00000  Uiso   1.00
C46    C     0.52322   0.03372   0.79776   0.00000  Uiso   1.00
C47    C     0.51054   0.85832   0.03381   0.00000  Uiso   1.00
O48    O     0.42160   0.90658   0.89085   0.00000  Uiso   1.00
O49    O     0.38773   0.86644   0.10206   0.00000  Uiso   1.00
O50    O     0.47617   0.00196   0.09179   0.00000  Uiso   1.00
O51    O     0.47367   0.93075   0.20893   0.00000  Uiso   1.00
O52    O     0.51754   0.15449   0.86066   0.00000  Uiso   1.00
O53    O     0.48217   0.10911   0.07114   0.00000  Uiso   1.00
O54    O     0.58050   0.09969   0.10674   0.00000  Uiso   1.00
O55    O     0.61430   0.13999   0.89548   0.00000  Uiso   1.00
O56    O     0.52595   1.00430   0.90587   0.00000  Uiso   1.00
O57    O     0.52837   0.07548   0.78885   0.00000  Uiso   1.00
O58    O     0.48441   0.85172   0.13740   0.00000  Uiso   1.00
O59    O     0.51970   0.89693   0.92685   0.00000  Uiso   1.00
C60    C     0.50112   0.48893   0.30820   0.00000  Uiso   1.00
C61    C     0.52436   0.50892   0.49506   0.00000  Uiso   1.00
C62    C     0.47621   0.49616   0.50767   0.00000  Uiso   1.00
S63    S     0.55266   0.52548   0.60921   0.00000  Uiso   1.00
S64    S     0.44714   0.49747   0.63711   0.00000  Uiso   1.00
S65    S     0.55341   0.50755   0.36570   0.00000  Uiso   1.00
S66    S     0.44791   0.47961   0.39352   0.00000  Uiso   1.00
C67    C     0.49941   0.51606   0.69467   0.00000  Uiso   1.00
C68    C     0.01443   0.51267   0.69433   0.00000  Uiso   1.00
C69    C     0.99065   0.47690   0.53589   0.00000  Uiso   1.00
C70    C     0.01129   0.52902   0.46428   0.00000  Uiso   1.00
S71    S     0.96923   0.43944   0.45583   0.00000  Uiso   1.00
S72    S     0.01454   0.55379   0.29860   0.00000  Uiso   1.00
S73    S     0.98745   0.45215   0.70153   0.00000  Uiso   1.00
S74    S     0.03265   0.56646   0.54438   0.00000  Uiso   1.00
C75    C     0.98746   0.49325   0.30585   0.00000  Uiso   1.00
C76    C     0.48926   0.98617   0.31158   0.00000  Uiso   1.00
C77    C     0.49206   0.01857   0.47822   0.00000  Uiso   1.00
C78    C     0.51003   0.98768   0.51951   0.00000  Uiso   1.00
S79    S     0.48924   0.04811   0.57142   0.00000  Uiso   1.00
S80    S     0.52864   0.98043   0.66186   0.00000  Uiso   1.00
S81    S     0.47346   0.02582   0.33587   0.00000  Uiso   1.00
S82    S     0.51285   0.95814   0.42631   0.00000  Uiso   1.00
C83    C     0.51284   0.02009   0.68612   0.00000  Uiso   1.00
C84    C     0.29330   0.47530   0.13123   0.00000  Uiso   1.00
C85    C     0.21924   0.47186   1.07401   0.00000  Uiso   1.00
C86    C     0.21806   0.47500   0.19241   0.00000  Uiso   1.00
S87    S     0.17878   0.47867   0.99004   0.00000  Uiso   1.00
S88    S     0.17547   0.48553   0.24935   0.00000  Uiso   1.00
S89    S     0.26616   0.46971   1.00457   0.00000  Uiso   1.00
S90    S     0.26411   0.47619   0.26441   0.00000  Uiso   1.00
C91    C     0.15501   0.48972   0.10792   0.00000  Uiso   1.00
C92    C     0.81960   0.29000   0.05250   0.00000  Uiso   1.00
C93    C     0.75887   0.22974   0.97966   0.00000  Uiso   1.00
C94    C     0.73649   0.21081   0.11311   0.00000  Uiso   1.00
S95    S     0.72386   0.20241   0.88994   0.00000  Uiso   1.00
S96    S     0.67483   0.16034   0.18272   0.00000  Uiso   1.00
S97    S     0.81836   0.28411   0.90542   0.00000  Uiso   1.00
S98    S     0.76930   0.24317   0.19732   0.00000  Uiso   1.00
C99    C     0.67097   0.16045   0.02901   0.00000  Uiso   1.00
C100   C     0.84577   0.51538   0.89741   0.00000  Uiso   1.00
C101   C     0.78292   0.53059   0.81319   0.00000  Uiso   1.00
C102   C     0.78079   0.53204  -0.06621   0.00000  Uiso   1.00
S103   S     0.73740   0.53036   0.73983   0.00000  Uiso   1.00
S104   S     0.73325   0.53306   0.00461   0.00000  Uiso   1.00
S105   S     0.82625   0.52128   0.75419   0.00000  Uiso   1.00
S106   S     0.82086   0.52450   0.01823   0.00000  Uiso   1.00
C107   C     0.70714   0.52931   0.87530   0.00000  Uiso   1.00
C108   C     0.33112   0.84596   0.96839   0.00000  Uiso   1.00
C109   C     0.24318   0.77674   0.01777   0.00000  Uiso   1.00
C110   C     0.26564   0.79540   0.88455   0.00000  Uiso   1.00
S111   S     0.18362   0.72248   0.09210   0.00000  Uiso   1.00
S112   S     0.23287   0.76281   0.80077   0.00000  Uiso   1.00
S113   S     0.27815   0.80425   0.10725   0.00000  Uiso   1.00
S114   S     0.32733   0.84577   0.81495   0.00000  Uiso   1.00
C115   C     0.18246   0.71624   0.94549   0.00000  Uiso   1.00
C116   C     0.52436   0.82189   0.03547   0.00000  Uiso   1.00
C117   C     0.53632   0.76520   0.96758   0.00000  Uiso   1.00
C118   C     0.52087   0.74070   0.10566   0.00000  Uiso   1.00
S119   S     0.53963   0.73225   0.88594   0.00000  Uiso   1.00
S120   S     0.50664   0.67888   0.18839   0.00000  Uiso   1.00
S121   S     0.54455   0.82436   0.88471   0.00000  Uiso   1.00
S122   S     0.50988   0.77032   0.18718   0.00000  Uiso   1.00
C123   C     0.51776   0.67741   0.03748   0.00000  Uiso   1.00
C124   C     0.48326   0.32802   0.96267   0.00000  Uiso   1.00
C125   C     0.46487   0.24033   0.03155   0.00000  Uiso   1.00
C126   C     0.48068   0.26515   0.89347   0.00000  Uiso   1.00
S127   S     0.45665   0.18117   0.11391   0.00000  Uiso   1.00
S128   S     0.49208   0.23587   0.81147   0.00000  Uiso   1.00
S129   S     0.46110   0.27293   0.11381   0.00000  Uiso   1.00
S130   S     0.49493   0.32699   0.81135   0.00000  Uiso   1.00
C131   C     0.47734   0.18406   0.96292   0.00000  Uiso   1.00
loop_
_geom_bond_atom_site_label_1
_geom_bond_atom_site_label_2
_geom_bond_distance
_geom_bond_site_symmetry_2
_ccdc_geom_bond_type
Y0     O10     2.262   .     S
Y0     O13     2.239   .     S
Y0     O14     2.257   .     S
Y0     O12     2.277   1_554 S
Y0     O15     2.261   1_554 S
Y0     O17     2.253   1_554 S
Y1     O8      2.256   .     S
Y1     O16     2.262   .     S
Y1     O19     2.239   .     S
Y1     O9      2.261   1_556 S
Y1     O11     2.252   1_556 S
Y1     O18     2.277   1_556 S
C2     O9      1.260   .     A
C2     C123    1.467   .     S
C2     O8      1.260   1_554 A
C3     O10     1.272   .     A
C3     O11     1.271   .     A
C3     C60     1.472   .     S
C4     O12     1.263   .     A
C4     C107    1.466   .     S
C4     O13     1.257   1_556 A
C5     O15     1.260   .     A
C5     C124    1.467   .     S
C5     O14     1.260   1_556 A
C6     O16     1.272   .     A
C6     O17     1.271   .     A
C6     C67     1.473   .     S
C7     O18     1.263   .     A
C7     C84     1.466   .     S
C7     O19     1.257   1_554 A
O8     C2      1.260   1_556 A
O9     Y1      2.261   1_554 S
O11    Y1      2.252   1_554 S
O12    Y0      2.277   1_556 S
O13    C4      1.257   1_554 A
O14    C5      1.260   1_554 A
O15    Y0      2.261   1_556 S
O17    Y0      2.253   1_556 S
O18    Y1      2.277   1_554 S
O19    C7      1.257   1_556 A
Y20    O30     2.255   .     S
Y20    O33     2.253   .     S
Y20    O34     2.276   .     S
Y20    O32     2.263   1_554 S
Y20    O35     2.238   1_554 S
Y20    O37     2.245   1_554 S
Y21    O28     2.276   .     S
Y21    O36     2.255   .     S
Y21    O39     2.253   .     S
Y21    O29     2.237   1_556 S
Y21    O31     2.245   1_556 S
Y21    O38     2.264   1_556 S
C22    O28     1.264   .     A
C22    C100    1.466   .     S
C22    O29     1.257   1_556 A
C23    O30     1.269   .     A
C23    O31     1.272   1_455 A
C23    C75     1.458   1_455 S
C24    O32     1.261   .     A
C24    C115    1.468   .     S
C24    O33     1.259   1_556 A
C25    O34     1.264   .     A
C25    C91     1.466   .     S
C25    O35     1.257   1_554 A
C26    O37     1.272   .     A
C26    C68     1.458   .     S
C26    O36     1.269   1_455 A
C27    O38     1.261   .     A
C27    C92     1.468   .     S
C27    O39     1.259   1_554 A
O29    Y21     2.237   1_554 S
O29    C22     1.257   1_554 A
O31    Y21     2.245   1_554 S
O31    C23     1.272   1_655 A
O32    Y20     2.263   1_556 S
O33    C24     1.259   1_554 A
O35    Y20     2.238   1_556 S
O35    C25     1.257   1_556 A
O36    C26     1.269   1_655 A
O37    Y20     2.245   1_556 S
O38    Y21     2.264   1_554 S
O39    C27     1.259   1_556 A
Y40    O50     2.254   .     S
Y40    O53     2.260   .     S
Y40    O54     2.263   .     S
Y40    O52     2.260   1_554 S
Y40    O55     2.256   1_554 S
Y40    O57     2.262   1_554 S
Y41    O48     2.263   .     S
Y41    O56     2.254   .     S
Y41    O59     2.260   .     S
Y41    O49     2.256   1_556 S
Y41    O51     2.262   1_556 S
Y41    O58     2.259   1_556 S
C42    O48     1.260   .     A
C42    C108    1.468   .     S
C42    O49     1.260   1_556 A
C43    O50     1.272   .     A
C43    O51     1.273   1_545 A
C43    C76     1.473   1_545 S
C44    O52     1.260   .     A
C44    C131    1.468   .     S
C44    O53     1.260   1_556 A
C45    O54     1.260   .     A
C45    C99     1.468   .     S
C45    O55     1.260   1_554 A
C46    O57     1.273   .     A
C46    C83     1.473   .     S
C46    O56     1.272   1_545 A
C47    O58     1.260   .     A
C47    C116    1.468   .     S
C47    O59     1.260   1_554 A
O49    Y41     2.256   1_554 S
O49    C42     1.260   1_554 A
O51    Y41     2.262   1_554 S
O51    C43     1.273   1_565 A
O52    Y40     2.260   1_556 S
O53    C44     1.260   1_554 A
O55    Y40     2.256   1_556 S
O55    C45     1.260   1_556 A
O56    C46     1.272   1_565 A
O57    Y40     2.262   1_556 S
O58    Y41     2.259   1_554 S
O59    C47     1.260   1_556 A
C60    S65     1.722   .     A
C60    S66     1.716   .     A
C61    C62     1.356   .     A
C61    S63     1.699   .     A
C61    S65     1.691   .     A
C62    S64     1.691   .     A
C62    S66     1.699   .     A
S63    C67     1.716   .     A
S64    C67     1.722   .     A
C68    S74     1.713   .     A
C68    S73     1.714   1_455 A
C69    S71     1.690   .     A
C69    S73     1.684   .     A
C69    C70     1.356   1_655 A
C70    S72     1.684   .     A
C70    S74     1.690   .     A
C70    C69     1.356   1_455 A
S71    C75     1.713   .     A
S72    C75     1.714   1_455 A
S73    C68     1.714   1_655 A
C75    S72     1.714   1_655 A
C75    C23     1.458   1_655 S
C76    S82     1.720   .     A
C76    S81     1.717   1_565 A
C76    C43     1.473   1_565 S
C77    S79     1.694   .     A
C77    S81     1.695   .     A
C77    C78     1.355   1_545 A
C78    S80     1.695   .     A
C78    S82     1.694   .     A
C78    C77     1.355   1_565 A
S79    C83     1.720   .     A
S80    C83     1.717   1_565 A
S81    C76     1.717   1_545 A
C83    S80     1.717   1_545 A
C84    S90     1.719   .     A
C84    S89     1.714   1_554 A
C85    S87     1.686   .     A
C85    S89     1.687   .     A
C85    C86     1.358   1_556 A
C86    S88     1.700   .     A
C86    S90     1.700   .     A
C86    C85     1.358   1_554 A
S87    C91     1.714   1_556 A
S88    C91     1.719   .     A
S89    C84     1.714   1_556 A
C91    S87     1.714   1_554 A
C92    S98     1.718   .     A
C92    S97     1.717   1_554 A
C93    S95     1.693   .     A
C93    S97     1.692   .     A
C93    C94     1.357   1_556 A
C94    S96     1.695   .     A
C94    S98     1.696   .     A
C94    C93     1.357   1_554 A
S95    C99     1.716   1_556 A
S96    C99     1.718   .     A
S97    C92     1.717   1_556 A
C99    S95     1.716   1_554 A
C100   S105    1.719   .     A
C100   S106    1.714   1_556 A
C101   S103    1.700   .     A
C101   S105    1.701   .     A
C101   C102    1.358   1_556 A
C102   S104    1.686   .     A
C102   S106    1.686   .     A
C102   C101    1.358   1_554 A
S103   C107    1.719   .     A
S104   C107    1.714   1_554 A
S106   C100    1.714   1_554 A
C107   S104    1.714   1_556 A
C108   S114    1.718   .     A
C108   S113    1.716   1_556 A
C109   S111    1.692   .     A
C109   S113    1.693   .     A
C109   C110    1.358   1_554 A
C110   S112    1.696   .     A
C110   S114    1.695   .     A
C110   C109    1.358   1_556 A
S111   C115    1.717   1_554 A
S112   C115    1.718   .     A
S113   C108    1.716   1_554 A
C115   S111    1.717   1_556 A
C116   S122    1.717   .     A
C116   S121    1.717   1_554 A
C117   S119    1.693   .     A
C117   S121    1.693   .     A
C117   C118    1.357   1_556 A
C118   S120    1.694   .     A
C118   S122    1.694   .     A
C118   C117    1.357   1_554 A
S119   C123    1.717   1_556 A
S120   C123    1.717   .     A
S121   C116    1.717   1_556 A
C123   S119    1.717   1_554 A
C124   S130    1.717   .     A
C124   S129    1.717   1_556 A
C125   S127    1.693   .     A
C125   S129    1.693   .     A
C125   C126    1.357   1_554 A
C126   S128    1.694   .     A
C126   S130    1.694   .     A
C126   C125    1.357   1_556 A
S127   C131    1.717   1_554 A
S128   C131    1.717   .     A
S129   C124    1.717   1_554 A
C131   S127    1.717   1_556 A
