data_kag+N155+E1
_audit_creation_date              2025-01-21
_audit_creation_method            'Materials Studio'
_symmetry_space_group_name_H-M    'P1'
_symmetry_Int_Tables_number       1
_symmetry_cell_setting            triclinic
loop_
_symmetry_equiv_pos_as_xyz
  x,y,z
_cell_length_a                    41.6963
_cell_length_b                    43.8127
_cell_length_c                    19.3442
_cell_angle_alpha                 90.1922
_cell_angle_beta                  90.7270
_cell_angle_gamma                 125.1778
loop_
_atom_site_label
_atom_site_type_symbol
_atom_site_fract_x
_atom_site_fract_y
_atom_site_fract_z
_atom_site_U_iso_or_equiv
_atom_site_adp_type
_atom_site_occupancy
C0     C     0.46356   0.39580  -0.00242   0.00000  Uiso   1.00
Ho1    Ho    0.48627   0.46482  -0.00258   0.00000  Uiso   1.00
C2     C     0.53695   0.61044   1.00003   0.00000  Uiso   1.00
Ho3    Ho    0.51399   0.54134   0.99904   0.00000  Uiso   1.00
O4     O     0.46908   0.41439   0.05328   0.00000  Uiso   1.00
O5     O     0.46906   0.41398   0.94218   0.00000  Uiso   1.00
O6     O     0.47924   0.44491   0.10320   0.00000  Uiso   1.00
O7     O     0.50016   0.50289   0.08202   0.00000  Uiso   1.00
C8     C     0.49017   0.47502   0.13008   0.00000  Uiso   1.00
C9     C     0.51006   0.53122   0.86646   0.00000  Uiso   1.00
O10    O     0.54936   0.48922   0.00096   0.00000  Uiso   1.00
O11    O     0.57212   0.55111   0.99931   0.00000  Uiso   1.00
O12    O     0.53124   0.59208   0.94389   0.00000  Uiso   1.00
O13    O     0.53144   0.59197   0.05499   0.00000  Uiso   1.00
O14    O     0.52100   0.56131   0.89345   0.00000  Uiso   1.00
O15    O     0.50007   0.50328   0.91437   0.00000  Uiso   1.00
O16    O     0.45085   0.51699   0.99618   0.00000  Uiso   1.00
O17    O     0.42813   0.45509  -0.00323   0.00000  Uiso   1.00
C18    C     0.42279   0.48155   0.99576   0.00000  Uiso   1.00
C19    C     0.57744   0.52465   0.00115   0.00000  Uiso   1.00
C20    C     0.07828   0.47757  -0.00067   0.00000  Uiso   1.00
Ho21   Ho    0.02818   0.49470  -0.00052   0.00000  Uiso   1.00
C22    C     0.92383   0.53157   0.99952   0.00000  Uiso   1.00
Ho23   Ho    0.97428   0.51477   0.99933   0.00000  Uiso   1.00
O24    O     0.06469   0.48150   0.05533   0.00000  Uiso   1.00
O25    O     0.06437   0.48218   0.94423   0.00000  Uiso   1.00
O26    O     0.04204   0.48873   0.10572   0.00000  Uiso   1.00
O27    O     1.00124   0.50412   0.08313   0.00000  Uiso   1.00
C28    C     1.02078   0.49647   0.13184   0.00000  Uiso   1.00
C29    C    -0.01828   0.51305   0.86685   0.00000  Uiso   1.00
O30    O     0.07174   0.55563   0.00371   0.00000  Uiso   1.00
O31    O     0.02841   0.57204   1.00145   0.00000  Uiso   1.00
O32    O     0.93772   0.52797   0.94358   0.00000  Uiso   1.00
O33    O     0.93772   0.52691   0.05460   0.00000  Uiso   1.00
O34    O     0.96045   0.52078   0.89308   0.00000  Uiso   1.00
O35    O     0.00125   0.50538   0.91555   0.00000  Uiso   1.00
O36    O     0.93081   0.45373   0.99511   0.00000  Uiso   1.00
O37    O     0.97426   0.43749  -0.00228   0.00000  Uiso   1.00
C38    C     0.93883   0.42911   0.99559   0.00000  Uiso   1.00
C39    C     0.06383   0.58034   0.00365   0.00000  Uiso   1.00
C40    C     0.53778   0.93617   0.99840   0.00000  Uiso   1.00
Ho41   Ho    0.51557   0.98072   0.99766   0.00000  Uiso   1.00
C42    C     0.46641   0.07200  -0.00326   0.00000  Uiso   1.00
Ho43   Ho    0.48892   0.02771  -0.00336   0.00000  Uiso   1.00
O44    O     0.53261   0.94855   0.94231   0.00000  Uiso   1.00
O45    O     0.53202   0.94856   0.05335   0.00000  Uiso   1.00
O46    O     0.52307   0.96868   0.89195   0.00000  Uiso   1.00
O47    O     0.50281   0.00433   0.91340   0.00000  Uiso   1.00
C48    C     0.51277  -0.01274   0.86527   0.00000  Uiso   1.00
C49    C     0.49186   0.02116   0.12924   0.00000  Uiso   1.00
O50    O     0.45219   0.93642   0.99303   0.00000  Uiso   1.00
O51    O     0.43045   0.97412  -0.00529   0.00000  Uiso   1.00
O52    O     0.47165   0.05940   0.05242   0.00000  Uiso   1.00
O53    O     0.47240   0.06006   0.94135   0.00000  Uiso   1.00
O54    O     0.48151   0.03971   0.10262   0.00000  Uiso   1.00
O55    O     0.50177   1.00413   0.08091   0.00000  Uiso   1.00
O56    O     0.55222   0.07203   0.00152   0.00000  Uiso   1.00
O57    O     0.57405   0.03437   0.99961   0.00000  Uiso   1.00
C58    C     0.58006   0.06698   0.00181   0.00000  Uiso   1.00
C59    C     0.42436   0.94148   0.99286   0.00000  Uiso   1.00
C60    C     0.49638   0.49228   0.34984   0.00000  Uiso   1.00
C61    C     0.48438   0.45743   0.32217   0.00000  Uiso   1.00
C62    C     0.48244   0.45182   0.25070   0.00000  Uiso   1.00
C63    C     0.49246   0.48093   0.20547   0.00000  Uiso   1.00
C64    C     0.50461   0.51580   0.23286   0.00000  Uiso   1.00
C65    C     0.50647   0.52141   0.30439   0.00000  Uiso   1.00
C66    C     0.49826   0.49810   0.42581   0.00000  Uiso   1.00
C67    C     0.48530   0.51851   0.45511   0.00000  Uiso   1.00
C68    C     0.48679   0.52369   0.52669   0.00000  Uiso   1.00
C69    C     0.50129   0.50858   0.57055   0.00000  Uiso   1.00
C70    C     0.51434   0.48826   0.54122   0.00000  Uiso   1.00
C71    C     0.51284   0.48308   0.46967   0.00000  Uiso   1.00
C72    C     0.50311   0.51423   0.64656   0.00000  Uiso   1.00
C73    C     0.49302   0.48497   0.69170   0.00000  Uiso   1.00
C74    C     0.49520   0.49047   0.76329   0.00000  Uiso   1.00
C75    C     0.50759   0.52536   0.79104   0.00000  Uiso   1.00
C76    C     0.51752   0.55455   0.74612   0.00000  Uiso   1.00
C77    C     0.51526   0.54904   0.67460   0.00000  Uiso   1.00
H78    H     0.47593   0.43431   0.35581   0.00000  Uiso   1.00
H79    H     0.47296   0.42464   0.23083   0.00000  Uiso   1.00
H80    H     0.51267   0.53874   0.19900   0.00000  Uiso   1.00
H81    H     0.51627   0.54869   0.32417   0.00000  Uiso   1.00
H82    H     0.47336   0.52994   0.42274   0.00000  Uiso   1.00
H83    H     0.47600   0.53902   0.54783   0.00000  Uiso   1.00
H84    H     0.52628   0.47683   0.57356   0.00000  Uiso   1.00
H85    H     0.52362   0.46773   0.44858   0.00000  Uiso   1.00
H86    H     0.48303   0.45769   0.67158   0.00000  Uiso   1.00
H87    H     0.48717   0.46745   0.79688   0.00000  Uiso   1.00
H88    H     0.52717   0.58172   0.76633   0.00000  Uiso   1.00
H89    H     0.52361   0.57222   0.64123   0.00000  Uiso   1.00
C90    C     0.99375   0.50891   0.64721   0.00000  Uiso   1.00
C91    C    -0.02914   0.52015   0.67413   0.00000  Uiso   1.00
C92    C    -0.03305   0.52153   0.74554   0.00000  Uiso   1.00
C93    C     0.98602   0.51190   0.79147   0.00000  Uiso   1.00
C94    C     1.00925   0.50107   0.76481   0.00000  Uiso   1.00
C95    C     1.01304   0.49954   0.69336   0.00000  Uiso   1.00
C96    C     0.99730   0.50677   0.57129   0.00000  Uiso   1.00
C97    C     0.99587   0.47665   0.54165   0.00000  Uiso   1.00
C98    C     0.99934   0.47463   0.47029   0.00000  Uiso   1.00
C99    C     1.00425   0.50264   0.42690   0.00000  Uiso   1.00
C100   C     0.00566   0.53275   0.45649   0.00000  Uiso   1.00
C101   C     0.00218   0.53477   0.52787   0.00000  Uiso   1.00
C102   C     1.00815   0.50059   0.35112   0.00000  Uiso   1.00
C103   C    -0.01116   0.50978   0.30465   0.00000  Uiso   1.00
C104   C    -0.00719   0.50820   0.23332   0.00000  Uiso   1.00
C105   C     0.01628   0.49757   0.20710   0.00000  Uiso   1.00
C106   C     1.03535   0.48807   0.25333   0.00000  Uiso   1.00
C107   C     1.03127   0.48950   0.32466   0.00000  Uiso   1.00
H108   H    -0.04457   0.52726   0.63990   0.00000  Uiso   1.00
H109   H    -0.05109   0.53003   0.76483   0.00000  Uiso   1.00
H110   H     1.02444   0.49371   0.79916   0.00000  Uiso   1.00
H111   H     1.03138   0.49137   0.67418   0.00000  Uiso   1.00
H112   H     0.99137   0.45428   0.57357   0.00000  Uiso   1.00
H113   H     0.99753   0.45080   0.44889   0.00000  Uiso   1.00
H114   H     0.01005   0.55506   0.42449   0.00000  Uiso   1.00
H115   H     0.00387   0.55855   0.54922   0.00000  Uiso   1.00
H116   H    -0.02974   0.51773   0.32352   0.00000  Uiso   1.00
H117   H    -0.02244   0.51539   0.19869   0.00000  Uiso   1.00
H118   H     1.05350   0.47963   0.23431   0.00000  Uiso   1.00
H119   H     1.04666   0.48244   0.35915   0.00000  Uiso   1.00
C120   C     0.49744   0.01017   0.34897   0.00000  Uiso   1.00
C121   C     0.48593   0.03225   0.32172   0.00000  Uiso   1.00
C122   C     0.48420   0.03592   0.25029   0.00000  Uiso   1.00
C123   C     0.49377   0.01744   0.20464   0.00000  Uiso   1.00
C124   C     0.50530   0.99540   0.23162   0.00000  Uiso   1.00
C125   C     0.50713   0.99179   0.30310   0.00000  Uiso   1.00
C126   C     0.49956   0.00656   0.42494   0.00000  Uiso   1.00
C127   C     0.53073   1.00711   0.45514   0.00000  Uiso   1.00
C128   C     0.53295   1.00417   0.52669   0.00000  Uiso   1.00
C129   C     0.50402   0.00052   0.56965   0.00000  Uiso   1.00
C130   C     0.47281  -0.00010   0.53948   0.00000  Uiso   1.00
C131   C     0.47061   0.00288   0.46794   0.00000  Uiso   1.00
C132   C     0.50634  -0.00278   0.64562   0.00000  Uiso   1.00
C133   C     0.49702   0.01599   0.69125   0.00000  Uiso   1.00
C134   C     0.49925   0.01283   0.76276   0.00000  Uiso   1.00
C135   C     0.51077  -0.00918   0.78993   0.00000  Uiso   1.00
C136   C     0.52007   0.97204   0.74454   0.00000  Uiso   1.00
C137   C     0.51789   0.97522   0.67310   0.00000  Uiso   1.00
H138   H     0.47879   0.04715   0.35569   0.00000  Uiso   1.00
H139   H     0.47551   0.05333   0.23078   0.00000  Uiso   1.00
H140   H     0.51280   0.98084   0.19747   0.00000  Uiso   1.00
H141   H     0.51565   0.97422   0.32247   0.00000  Uiso   1.00
H142   H     0.55380   1.01049   0.42357   0.00000  Uiso   1.00
H143   H     0.55769   1.00535   0.54853   0.00000  Uiso   1.00
H144   H     0.44974  -0.00349   0.57111   0.00000  Uiso   1.00
H145   H     0.44591   0.00179   0.44615   0.00000  Uiso   1.00
H146   H     0.48845   0.03347   0.67166   0.00000  Uiso   1.00
H147   H     0.49202   0.02765   0.79676   0.00000  Uiso   1.00
H148   H     0.52884   0.95473   0.76427   0.00000  Uiso   1.00
H149   H     0.52468   0.95999   0.63932   0.00000  Uiso   1.00
C150   C     0.30939   0.46122   0.99072   0.00000  Uiso   1.00
C151   C     0.32499   0.45787   0.05296   0.00000  Uiso   1.00
C152   C     0.36126   0.46276   0.05413   0.00000  Uiso   1.00
C153   C     0.38256   0.47126  -0.00670   0.00000  Uiso   1.00
C154   C     0.36683   0.47366   0.93091   0.00000  Uiso   1.00
C155   C     0.33038   0.46825   0.92942   0.00000  Uiso   1.00
C156   C     0.27274   0.45969   0.99019   0.00000  Uiso   1.00
C157   C     0.26914   0.48317   0.94636   0.00000  Uiso   1.00
C158   C     0.23557   0.48297   0.94700   0.00000  Uiso   1.00
C159   C     0.20491   0.45969  -0.00785   0.00000  Uiso   1.00
C160   C     0.20821   0.43607   0.03591   0.00000  Uiso   1.00
C161   C     0.24169   0.43591   0.03469   0.00000  Uiso   1.00
C162   C     0.17024   0.46109  -0.00555   0.00000  Uiso   1.00
C163   C     0.15567   0.46327   0.05803   0.00000  Uiso   1.00
C164   C     0.12499   0.46767   0.05989   0.00000  Uiso   1.00
C165   C     0.10831   0.46979  -0.00184   0.00000  Uiso   1.00
C166   C     0.12208   0.46648   0.93470   0.00000  Uiso   1.00
C167   C     0.15281   0.46229   0.93285   0.00000  Uiso   1.00
H168   H     0.31002   0.45303   0.10128   0.00000  Uiso   1.00
H169   H     0.37343   0.46139   0.10289   0.00000  Uiso   1.00
H170   H     0.38317   0.48049   0.88359   0.00000  Uiso   1.00
H171   H     0.31897   0.47022   0.88033   0.00000  Uiso   1.00
H172   H     0.29276   0.50257   0.91271   0.00000  Uiso   1.00
H173   H     0.23406   0.50187   0.91347   0.00000  Uiso   1.00
H174   H     0.18477   0.41758   0.07073   0.00000  Uiso   1.00
H175   H     0.24316   0.41708   0.06846   0.00000  Uiso   1.00
H176   H     0.16902   0.46302   0.10622   0.00000  Uiso   1.00
H177   H     0.11503   0.47036   0.10951   0.00000  Uiso   1.00
H178   H     0.10965   0.46792   0.88635   0.00000  Uiso   1.00
H179   H     0.16328   0.46041   0.88316   0.00000  Uiso   1.00
C180   C     0.84126   0.31352  -0.00779   0.00000  Uiso   1.00
C181   C     0.83753   0.34072   0.96356   0.00000  Uiso   1.00
C182   C     0.86926   0.37826   0.96479   0.00000  Uiso   1.00
C183   C     0.90560   0.38923  -0.00646   0.00000  Uiso   1.00
C184   C     0.90959   0.36186   0.02088   0.00000  Uiso   1.00
C185   C     0.87752   0.32433   0.02094   0.00000  Uiso   1.00
C186   C     0.80675   0.27423  -0.00589   0.00000  Uiso   1.00
C187   C     0.79422   0.25539   0.05723   0.00000  Uiso   1.00
C188   C     0.75906   0.21976   0.06027   0.00000  Uiso   1.00
C189   C     0.73652   0.20219   0.99998   0.00000  Uiso   1.00
C190   C     0.74984   0.22035   0.93646   0.00000  Uiso   1.00
C191   C     0.78452   0.25629   0.93365   0.00000  Uiso   1.00
C192   C     0.69741   0.16661   1.00405   0.00000  Uiso   1.00
C193   C     0.68873   0.13461   0.96865   0.00000  Uiso   1.00
C194   C     0.65078   0.10158   0.96984   0.00000  Uiso   1.00
C195   C     0.62083   0.10060   1.00469   0.00000  Uiso   1.00
C196   C     0.62976   0.13268   0.04030   0.00000  Uiso   1.00
C197   C     0.66782   0.16528   0.04057   0.00000  Uiso   1.00
H198   H     0.80972   0.33298   0.94162   0.00000  Uiso   1.00
H199   H     0.86541   0.39870   0.94292   0.00000  Uiso   1.00
H200   H     0.93726   0.36957   0.04347   0.00000  Uiso   1.00
H201   H     0.88099   0.30370   0.04312   0.00000  Uiso   1.00
H202   H     0.81073   0.26889   0.10455   0.00000  Uiso   1.00
H203   H     0.74901   0.20615   0.10975   0.00000  Uiso   1.00
H204   H     0.73254   0.20734   0.88960   0.00000  Uiso   1.00
H205   H     0.79369   0.27042   0.88451   0.00000  Uiso   1.00
H206   H     0.71126   0.13531   0.93989   0.00000  Uiso   1.00
H207   H     0.64452   0.07725   0.94170   0.00000  Uiso   1.00
H208   H     0.60720   0.13256   0.06774   0.00000  Uiso   1.00
H209   H     0.67397   0.18986   0.06761   0.00000  Uiso   1.00
C210   C     0.83102   0.54696   0.00268   0.00000  Uiso   1.00
C211   C     0.84902   0.54934   0.94009   0.00000  Uiso   1.00
C212   C     0.87986   0.54513   0.93898   0.00000  Uiso   1.00
C213   C     0.89346   0.53896   1.00056   0.00000  Uiso   1.00
C214   C     0.87633   0.53793   0.06332   0.00000  Uiso   1.00
C215   C     0.84534   0.54175   0.06432   0.00000  Uiso   1.00
C216   C     0.79566   0.54718   0.00366   0.00000  Uiso   1.00
C217   C     0.76251   0.51929   0.03941   0.00000  Uiso   1.00
C218   C     0.72870   0.51863   0.04041   0.00000  Uiso   1.00
C219   C     0.72728   0.54620   0.00648   0.00000  Uiso   1.00
C220   C     0.76064   0.57427   0.97070   0.00000  Uiso   1.00
C221   C     0.79441   0.57457   0.96886   0.00000  Uiso   1.00
C222   C     0.69066   0.54472   0.00736   0.00000  Uiso   1.00
C223   C     0.67866   0.55539   0.94935   0.00000  Uiso   1.00
C224   C     0.64248   0.55072   0.94845   0.00000  Uiso   1.00
C225   C     0.61759   0.53482   1.00503   0.00000  Uiso   1.00
C226   C     0.62976   0.52515   0.06356   0.00000  Uiso   1.00
C227   C     0.66615   0.53055   0.06521   0.00000  Uiso   1.00
H228   H     0.83822   0.55300   0.89185   0.00000  Uiso   1.00
H229   H     0.89250   0.54593   0.88988   0.00000  Uiso   1.00
H230   H     0.88618   0.53319   0.11158   0.00000  Uiso   1.00
H231   H     0.83211   0.54011   0.11325   0.00000  Uiso   1.00
H232   H     0.76248   0.49746   0.06554   0.00000  Uiso   1.00
H233   H     0.70338   0.49592   0.06676   0.00000  Uiso   1.00
H234   H     0.76084   0.59620   0.94466   0.00000  Uiso   1.00
H235   H     0.81972   0.59646   0.94115   0.00000  Uiso   1.00
H236   H     0.69637   0.56586   0.90349   0.00000  Uiso   1.00
H237   H     0.63311   0.55780   0.90244   0.00000  Uiso   1.00
H238   H     0.61075   0.51283   0.10765   0.00000  Uiso   1.00
H239   H     0.67470   0.52295   0.11152   0.00000  Uiso   1.00
C240   C     0.30674   0.84217   0.99353   0.00000  Uiso   1.00
C241   C     0.31533   0.87503   0.02501   0.00000  Uiso   1.00
C242   C     0.35339   0.90788   0.02288   0.00000  Uiso   1.00
C243   C     0.38349   0.90789  -0.00916   0.00000  Uiso   1.00
C244   C     0.37456   0.87492   0.95898   0.00000  Uiso   1.00
C245   C     0.33644   0.84242   0.95988   0.00000  Uiso   1.00
C246   C     0.26756   0.80687   0.99889   0.00000  Uiso   1.00
C247   C     0.24304   0.79061   0.94023   0.00000  Uiso   1.00
C248   C     0.20777   0.75506   0.94383   0.00000  Uiso   1.00
C249   C     0.19708   0.73502   1.00577   0.00000  Uiso   1.00
C250   C     0.22129   0.75182   0.06480   0.00000  Uiso   1.00
C251   C     0.25613   0.78762   0.06149   0.00000  Uiso   1.00
C252   C     0.16230   0.69575   1.00760   0.00000  Uiso   1.00
C253   C     0.16590   0.66812   0.03451   0.00000  Uiso   1.00
C254   C     0.13385   0.63070   0.03334   0.00000  Uiso   1.00
C255   C     0.09733   0.62018   1.00624   0.00000  Uiso   1.00
C256   C     0.09348   0.64794   0.98069   0.00000  Uiso   1.00
C257   C     0.12583   0.68538   0.98066   0.00000  Uiso   1.00
H258   H     0.29268   0.87510   0.05165   0.00000  Uiso   1.00
H259   H     0.35957   0.93288   0.04816   0.00000  Uiso   1.00
H260   H     0.39717   0.87425   0.93361   0.00000  Uiso   1.00
H261   H     0.33029   0.81715   0.93591   0.00000  Uiso   1.00
H262   H     0.25163   0.80513   0.89146   0.00000  Uiso   1.00
H263   H     0.18971   0.74257   0.89755   0.00000  Uiso   1.00
H264   H     0.21353   0.73695   0.11316   0.00000  Uiso   1.00
H265   H     0.27495   0.79974   0.10705   0.00000  Uiso   1.00
H266   H     0.19381   0.67542   0.05504   0.00000  Uiso   1.00
H267   H     0.13767   0.60998   0.05383   0.00000  Uiso   1.00
H268   H     0.06570   0.64061   0.95947   0.00000  Uiso   1.00
H269   H     0.12237   0.70626   0.95984   0.00000  Uiso   1.00
C270   C     0.55985   0.85173   0.00404   0.00000  Uiso   1.00
C271   C     0.55867   0.86829   0.06544   0.00000  Uiso   1.00
C272   C     0.55275   0.89656   0.06330   0.00000  Uiso   1.00
C273   C     0.54786   0.90892  -0.00023   0.00000  Uiso   1.00
C274   C     0.55034   0.89335   0.93821   0.00000  Uiso   1.00
C275   C     0.55634   0.86504   0.94033   0.00000  Uiso   1.00
C276   C     0.56214   0.81913   0.00664   0.00000  Uiso   1.00
C277   C     0.58457   0.81496   0.95895   0.00000  Uiso   1.00
C278   C     0.58439   0.78291   0.95904   0.00000  Uiso   1.00
C279   C     0.56177   0.75439   0.00681   0.00000  Uiso   1.00
C280   C     0.54008   0.75902   0.05539   0.00000  Uiso   1.00
C281   C     0.54031   0.79099   0.05539   0.00000  Uiso   1.00
C282   C     0.55930   0.71918   0.00468   0.00000  Uiso   1.00
C283   C     0.55782   0.70153   0.06632   0.00000  Uiso   1.00
C284   C     0.55173   0.66668   0.06463   0.00000  Uiso   1.00
C285   C     0.54714   0.64877   0.00127   0.00000  Uiso   1.00
C286   C     0.54986   0.66682   0.93951   0.00000  Uiso   1.00
C287   C     0.55593   0.70173   0.94118   0.00000  Uiso   1.00
H288   H     0.56179   0.85901   0.11529   0.00000  Uiso   1.00
H289   H     0.55109   0.90816   0.11153   0.00000  Uiso   1.00
H290   H     0.54649   0.90225   0.88851   0.00000  Uiso   1.00
H291   H     0.55667   0.85256   0.89217   0.00000  Uiso   1.00
H292   H     0.60221   0.83646   0.92153   0.00000  Uiso   1.00
H293   H     0.60193   0.78042   0.92172   0.00000  Uiso   1.00
H294   H     0.52181   0.73733   0.09212   0.00000  Uiso   1.00
H295   H     0.52227   0.79305   0.09219   0.00000  Uiso   1.00
H296   H     0.56085   0.71447   0.11602   0.00000  Uiso   1.00
H297   H     0.54975   0.65339   0.11303   0.00000  Uiso   1.00
H298   H     0.54618   0.65349   0.88994   0.00000  Uiso   1.00
H299   H     0.55647   0.71437   0.89281   0.00000  Uiso   1.00
C300   C     0.44296   0.28786   0.99945   0.00000  Uiso   1.00
C301   C     0.44373   0.30513   0.06146   0.00000  Uiso   1.00
C302   C     0.44914   0.33969   0.06066   0.00000  Uiso   1.00
C303   C     0.45366   0.35760   0.99782   0.00000  Uiso   1.00
C304   C     0.45124   0.33971   0.93563   0.00000  Uiso   1.00
C305   C     0.44586   0.30512   0.93641   0.00000  Uiso   1.00
C306   C     0.44158   0.25323   1.00087   0.00000  Uiso   1.00
C307   C     0.41958   0.22467   0.95123   0.00000  Uiso   1.00
C308   C     0.41990   0.19291   0.95126   0.00000  Uiso   1.00
C309   C     0.44225   0.18907   1.00086   0.00000  Uiso   1.00
C310   C     0.46397   0.21751   0.05079   0.00000  Uiso   1.00
C311   C     0.46367   0.24920   0.05074   0.00000  Uiso   1.00
C312   C     0.44441   0.15640   0.99918   0.00000  Uiso   1.00
C313   C     0.44523   0.14006   0.06099   0.00000  Uiso   1.00
C314   C     0.45096   0.11164   0.05989   0.00000  Uiso   1.00
C315   C     0.45607   0.09902   0.99699   0.00000  Uiso   1.00
C316   C     0.45357   0.11414   0.93492   0.00000  Uiso   1.00
C317   C     0.44774   0.14254   0.93600   0.00000  Uiso   1.00
H318   H     0.44070   0.29213   0.11074   0.00000  Uiso   1.00
H319   H     0.45070   0.35280   0.10936   0.00000  Uiso   1.00
H320   H     0.45473   0.35298   0.88647   0.00000  Uiso   1.00
H321   H     0.44550   0.29261   0.88777   0.00000  Uiso   1.00
H322   H     0.40203   0.22682   0.91250   0.00000  Uiso   1.00
H323   H     0.40255   0.17129   0.91259   0.00000  Uiso   1.00
H324   H     0.48216   0.21580   0.08878   0.00000  Uiso   1.00
H325   H     0.48169   0.27109   0.08864   0.00000  Uiso   1.00
H326   H     0.44195   0.14961   0.11037   0.00000  Uiso   1.00
H327   H     0.45232   0.10015   0.10843   0.00000  Uiso   1.00
H328   H     0.45730   0.10482   0.88565   0.00000  Uiso   1.00
H329   H     0.44737   0.15463   0.88752   0.00000  Uiso   1.00
loop_
_geom_bond_atom_site_label_1
_geom_bond_atom_site_label_2
_geom_bond_distance
_geom_bond_site_symmetry_2
_ccdc_geom_bond_type
C0     O4      1.284   .     A
C0     O5      1.280   1_554 A
C0     C303    1.475   1_554 S
Ho1    O4      2.185   .     S
Ho1    O6      2.183   .     S
Ho1    O7      2.154   .     S
Ho1    O10     2.196   .     S
Ho1    O17     2.206   .     S
Ho1    O5      2.177   1_554 S
Ho1    O15     2.162   1_554 S
C2     O12     1.285   .     A
C2     O13     1.279   1_556 A
C2     C285    1.476   1_556 S
Ho3    O11     2.205   .     S
Ho3    O12     2.189   .     S
Ho3    O14     2.181   .     S
Ho3    O15     2.155   .     S
Ho3    O16     2.198   .     S
Ho3    O7      2.161   1_556 S
Ho3    O13     2.174   1_556 S
O5     C0      1.280   1_556 A
O5     Ho1     2.177   1_556 S
O6     C8      1.231   .     D
O7     C8      1.400   .     S
O7     Ho3     2.161   1_554 S
C8     C63     1.473   .     S
C9     O14     1.231   .     D
C9     O15     1.400   .     S
C9     C75     1.472   .     S
O10    C19     1.299   .     A
O11    C19     1.300   1_556 A
O13    C2      1.279   1_554 A
O13    Ho3     2.174   1_554 S
O15    Ho1     2.162   1_556 S
O16    C18     1.299   .     A
O17    C18     1.300   1_554 A
C18    O17     1.300   1_556 A
C18    C153    1.465   1_556 S
C19    O11     1.300   1_554 A
C19    C225    1.464   1_554 S
C20    O24     1.285   .     A
C20    C165    1.475   .     S
C20    O25     1.278   1_554 A
Ho21   O24     2.190   .     S
Ho21   O26     2.185   .     S
Ho21   O30     2.200   .     S
Ho21   O25     2.171   1_554 S
Ho21   O27     2.151   1_455 S
Ho21   O35     2.163   1_554 S
Ho21   O37     2.201   1_455 S
C22    O32     1.285   .     A
C22    C213    1.477   .     S
C22    O33     1.278   1_556 A
Ho23   O32     2.191   .     S
Ho23   O34     2.185   .     S
Ho23   O36     2.203   .     S
Ho23   O27     2.161   1_556 S
Ho23   O31     2.205   1_655 S
Ho23   O33     2.173   1_556 S
Ho23   O35     2.153   1_655 S
O25    C20     1.278   1_556 A
O25    Ho21    2.171   1_556 S
O26    C28     1.230   1_455 D
O27    C28     1.401   .     S
O27    Ho21    2.151   1_655 S
O27    Ho23    2.161   1_554 S
C28    O26     1.230   1_655 D
C28    C105    1.474   1_655 S
C29    O35     1.401   .     S
C29    O34     1.231   1_455 D
C29    C93     1.476   1_455 S
O30    C39     1.301   .     A
O31    Ho23    2.205   1_455 S
O31    C39     1.302   1_556 A
O33    C22     1.278   1_554 A
O33    Ho23    2.173   1_554 S
O34    C29     1.231   1_655 D
O35    Ho21    2.163   1_556 S
O35    Ho23    2.153   1_455 S
O36    C38     1.301   .     A
O37    Ho21    2.201   1_655 S
O37    C38     1.301   1_554 A
C38    O37     1.301   1_556 A
C38    C183    1.477   1_556 S
C39    O31     1.302   1_554 A
C39    C255    1.479   1_554 S
C40    O44     1.285   .     A
C40    O45     1.279   1_556 A
C40    C273    1.477   1_556 S
Ho41   O44     2.191   .     S
Ho41   O46     2.181   .     S
Ho41   O50     2.200   .     S
Ho41   O45     2.173   1_556 S
Ho41   O47     2.153   1_565 S
Ho41   O55     2.161   1_556 S
Ho41   O57     2.206   1_565 S
C42    O52     1.284   .     A
C42    O53     1.279   1_554 A
C42    C315    1.475   1_554 S
Ho43   O52     2.184   .     S
Ho43   O54     2.184   .     S
Ho43   O56     2.199   .     S
Ho43   O47     2.162   1_554 S
Ho43   O51     2.204   1_545 S
Ho43   O53     2.178   1_554 S
Ho43   O55     2.154   1_545 S
O45    C40     1.279   1_554 A
O45    Ho41    2.173   1_554 S
O46    C48     1.230   1_565 D
O47    C48     1.401   .     S
O47    Ho41    2.153   1_545 S
O47    Ho43    2.162   1_556 S
C48    C135    1.473   .     S
C48    O46     1.230   1_545 D
C49    O54     1.230   .     D
C49    C123    1.475   .     S
C49    O55     1.400   1_545 S
O50    C59     1.301   .     A
O51    Ho43    2.204   1_565 S
O51    C59     1.301   1_554 A
O53    C42     1.279   1_556 A
O53    Ho43    2.178   1_556 S
O55    Ho41    2.161   1_554 S
O55    Ho43    2.154   1_565 S
O55    C49     1.400   1_565 S
O56    C58     1.301   .     A
O57    Ho41    2.206   1_545 S
O57    C58     1.301   1_556 A
C58    O57     1.301   1_554 A
C58    C195    1.475   1_554 S
C59    O51     1.301   1_556 A
C59    C243    1.476   1_556 S
C60    C61     1.406   .     A
C60    C65     1.406   .     A
C60    C66     1.484   .     S
C61    C62     1.396   .     A
C61    H78     1.083   .     S
C62    C63     1.404   .     A
C62    H79     1.083   .     S
C63    C64     1.403   .     A
C64    C65     1.398   .     A
C64    H80     1.083   .     S
C65    H81     1.083   .     S
C66    C67     1.405   .     A
C66    C71     1.405   .     A
C67    C68     1.397   .     A
C67    H82     1.083   .     S
C68    C69     1.406   .     A
C68    H83     1.083   .     S
C69    C70     1.405   .     A
C69    C72     1.484   .     S
C70    C71     1.396   .     A
C70    H84     1.082   .     S
C71    H85     1.082   .     S
C72    C73     1.406   .     A
C72    C77     1.405   .     A
C73    C74     1.398   .     A
C73    H86     1.083   .     S
C74    C75     1.403   .     A
C74    H87     1.083   .     S
C75    C76     1.403   .     A
C76    C77     1.396   .     A
C76    H88     1.083   .     S
C77    H89     1.083   .     S
C90    C95     1.406   .     A
C90    C96     1.486   .     S
C90    C91     1.406   1_655 A
C91    C92     1.398   .     A
C91    H108    1.082   .     S
C91    C90     1.406   1_455 A
C92    H109    1.083   .     S
C92    C93     1.404   1_455 A
C93    C94     1.404   .     A
C93    C92     1.404   1_655 A
C93    C29     1.476   1_655 S
C94    C95     1.399   .     A
C94    H110    1.083   .     S
C95    H111    1.083   .     S
C96    C97     1.406   .     A
C96    C101    1.406   1_655 A
C97    C98     1.398   .     A
C97    H112    1.083   .     S
C98    C99     1.405   .     A
C98    H113    1.083   .     S
C99    C102    1.485   .     S
C99    C100    1.406   1_655 A
C100   C101    1.398   .     A
C100   H114    1.083   .     S
C100   C99     1.406   1_455 A
C101   H115    1.083   .     S
C101   C96     1.406   1_455 A
C102   C107    1.406   .     A
C102   C103    1.406   1_655 A
C103   C104    1.398   .     A
C103   H116    1.083   .     S
C103   C102    1.406   1_455 A
C104   C105    1.403   .     A
C104   H117    1.083   .     S
C105   C106    1.404   1_455 A
C105   C28     1.474   1_455 S
C106   C107    1.398   .     A
C106   H118    1.083   .     S
C106   C105    1.404   1_655 A
C107   H119    1.083   .     S
C120   C121    1.406   .     A
C120   C126    1.485   .     S
C120   C125    1.406   1_545 A
C121   C122    1.397   .     A
C121   H138    1.083   .     S
C122   C123    1.404   .     A
C122   H139    1.083   .     S
C123   C124    1.403   1_545 A
C124   C125    1.398   .     A
C124   H140    1.083   .     S
C124   C123    1.403   1_565 A
C125   H141    1.083   .     S
C125   C120    1.406   1_565 A
C126   C131    1.406   .     A
C126   C127    1.406   1_545 A
C127   C128    1.397   .     A
C127   H142    1.083   .     S
C127   C126    1.406   1_565 A
C128   H143    1.083   .     S
C128   C129    1.406   1_565 A
C129   C130    1.405   .     A
C129   C132    1.484   .     S
C129   C128    1.406   1_545 A
C130   C131    1.397   .     A
C130   H144    1.083   .     S
C131   H145    1.083   .     S
C132   C133    1.406   .     A
C132   C137    1.406   1_545 A
C133   C134    1.398   .     A
C133   H146    1.083   .     S
C134   C135    1.403   .     A
C134   H147    1.083   .     S
C135   C136    1.403   1_545 A
C136   C137    1.397   .     A
C136   H148    1.083   .     S
C136   C135    1.403   1_565 A
C137   H149    1.083   .     S
C137   C132    1.406   1_565 A
C150   C155    1.409   .     A
C150   C156    1.490   .     S
C150   C151    1.409   1_556 A
C151   C152    1.400   .     A
C151   H168    1.082   .     S
C151   C150    1.409   1_554 A
C152   C153    1.400   .     A
C152   H169    1.083   .     S
C153   C154    1.399   1_554 A
C153   C18     1.465   1_554 S
C154   C155    1.397   .     A
C154   H170    1.084   .     S
C154   C153    1.399   1_556 A
C155   H171    1.083   .     S
C156   C157    1.407   .     A
C156   C161    1.408   1_556 A
C157   C158    1.395   .     A
C157   H172    1.082   .     S
C158   H173    1.083   .     S
C158   C159    1.403   1_556 A
C159   C160    1.405   .     A
C159   C162    1.483   .     S
C159   C158    1.403   1_554 A
C160   C161    1.400   .     A
C160   H174    1.083   .     S
C161   H175    1.082   .     S
C161   C156    1.408   1_554 A
C162   C163    1.406   .     A
C162   C167    1.405   1_554 A
C163   C164    1.400   .     A
C163   H176    1.083   .     S
C164   C165    1.404   .     A
C164   H177    1.083   .     S
C165   C166    1.404   1_554 A
C166   C167    1.396   .     A
C166   H178    1.083   .     S
C166   C165    1.404   1_556 A
C167   H179    1.083   .     S
C167   C162    1.405   1_556 A
C180   C185    1.404   .     A
C180   C186    1.477   .     S
C180   C181    1.403   1_554 A
C181   C182    1.396   .     A
C181   H198    1.083   .     S
C181   C180    1.403   1_556 A
C182   H199    1.083   .     S
C182   C183    1.405   1_556 A
C183   C184    1.406   .     A
C183   C182    1.405   1_554 A
C183   C38     1.477   1_554 S
C184   C185    1.400   .     A
C184   H200    1.083   .     S
C185   H201    1.083   .     S
C186   C187    1.404   .     A
C186   C191    1.404   1_554 A
C187   C188    1.398   .     A
C187   H202    1.083   .     S
C188   H203    1.083   .     S
C188   C189    1.403   1_554 A
C189   C190    1.402   .     A
C189   C192    1.473   .     S
C189   C188    1.403   1_556 A
C190   C191    1.397   .     A
C190   H204    1.083   .     S
C191   H205    1.083   .     S
C191   C186    1.404   1_556 A
C192   C193    1.403   .     A
C192   C197    1.401   1_556 A
C193   C194    1.400   .     A
C193   H206    1.083   .     S
C194   C195    1.405   .     A
C194   H207    1.083   .     S
C195   C196    1.404   1_556 A
C195   C58     1.475   1_556 S
C196   C197    1.395   .     A
C196   H208    1.083   .     S
C196   C195    1.404   1_554 A
C197   H209    1.083   .     S
C197   C192    1.401   1_554 A
C210   C215    1.404   .     A
C210   C216    1.481   .     S
C210   C211    1.405   1_554 A
C211   C212    1.401   .     A
C211   H228    1.083   .     S
C211   C210    1.405   1_556 A
C212   C213    1.405   .     A
C212   H229    1.083   .     S
C213   C214    1.404   1_556 A
C214   C215    1.396   .     A
C214   H230    1.083   .     S
C214   C213    1.404   1_554 A
C215   H231    1.083   .     S
C216   C217    1.402   .     A
C216   C221    1.404   1_554 A
C217   C218    1.393   .     A
C217   H232    1.083   .     S
C218   C219    1.407   .     A
C218   H233    1.082   .     S
C219   C222    1.491   .     S
C219   C220    1.409   1_554 A
C220   C221    1.401   .     A
C220   H234    1.082   .     S
C220   C219    1.409   1_556 A
C221   H235    1.083   .     S
C221   C216    1.404   1_556 A
C222   C227    1.409   .     A
C222   C223    1.410   1_554 A
C223   C224    1.401   .     A
C223   H236    1.082   .     S
C223   C222    1.410   1_556 A
C224   C225    1.400   .     A
C224   H237    1.083   .     S
C225   C226    1.399   1_556 A
C225   C19     1.464   1_556 S
C226   C227    1.394   .     A
C226   H238    1.084   .     S
C226   C225    1.399   1_554 A
C227   H239    1.082   .     S
C240   C245    1.401   .     A
C240   C246    1.472   .     S
C240   C241    1.402   1_556 A
C241   C242    1.401   .     A
C241   H258    1.083   .     S
C241   C240    1.402   1_554 A
C242   C243    1.406   .     A
C242   H259    1.083   .     S
C243   C244    1.405   1_554 A
C243   C59     1.476   1_554 S
C244   C245    1.396   .     A
C244   H260    1.083   .     S
C244   C243    1.405   1_556 A
C245   H261    1.083   .     S
C246   C247    1.402   .     A
C246   C251    1.401   1_556 A
C247   C248    1.399   .     A
C247   H262    1.083   .     S
C248   C249    1.405   .     A
C248   H263    1.083   .     S
C249   C252    1.480   .     S
C249   C250    1.405   1_556 A
C250   C251    1.397   .     A
C250   H264    1.083   .     S
C250   C249    1.405   1_554 A
C251   H265    1.083   .     S
C251   C246    1.401   1_554 A
C252   C257    1.404   .     A
C252   C253    1.404   1_556 A
C253   C254    1.396   .     A
C253   H266    1.083   .     S
C253   C252    1.404   1_554 A
C254   H267    1.083   .     S
C254   C255    1.405   1_554 A
C255   C256    1.406   .     A
C255   C254    1.405   1_556 A
C255   C39     1.479   1_556 S
C256   C257    1.400   .     A
C256   H268    1.083   .     S
C257   H269    1.083   .     S
C270   C271    1.406   .     A
C270   C276    1.486   .     S
C270   C275    1.407   1_554 A
C271   C272    1.396   .     A
C271   H288    1.083   .     S
C272   C273    1.404   .     A
C272   H289    1.083   .     S
C273   C274    1.405   1_554 A
C273   C40     1.477   1_554 S
C274   C275    1.400   .     A
C274   H290    1.083   .     S
C274   C273    1.405   1_556 A
C275   H291    1.083   .     S
C275   C270    1.407   1_556 A
C276   C281    1.405   .     A
C276   C277    1.406   1_554 A
C277   C278    1.400   .     A
C277   H292    1.083   .     S
C277   C276    1.406   1_556 A
C278   H293    1.083   .     S
C278   C279    1.406   1_556 A
C279   C280    1.405   .     A
C279   C282    1.486   .     S
C279   C278    1.406   1_554 A
C280   C281    1.395   .     A
C280   H294    1.083   .     S
C281   H295    1.083   .     S
C282   C283    1.406   .     A
C282   C287    1.407   1_554 A
C283   C284    1.396   .     A
C283   H296    1.083   .     S
C284   C285    1.403   .     A
C284   H297    1.083   .     S
C285   C286    1.404   1_554 A
C285   C2      1.476   1_554 S
C286   C287    1.399   .     A
C286   H298    1.083   .     S
C286   C285    1.404   1_556 A
C287   H299    1.083   .     S
C287   C282    1.407   1_556 A
C300   C305    1.406   .     A
C300   C306    1.485   .     S
C300   C301    1.406   1_556 A
C301   C302    1.397   .     A
C301   H318    1.083   .     S
C301   C300    1.406   1_554 A
C302   H319    1.083   .     S
C302   C303    1.404   1_554 A
C303   C304    1.404   .     A
C303   C302    1.404   1_556 A
C303   C0      1.475   1_556 S
C304   C305    1.398   .     A
C304   H320    1.083   .     S
C305   H321    1.083   .     S
C306   C307    1.406   .     A
C306   C311    1.406   1_556 A
C307   C308    1.399   .     A
C307   H322    1.083   .     S
C308   C309    1.406   .     A
C308   H323    1.083   .     S
C309   C312    1.485   .     S
C309   C310    1.405   1_556 A
C310   C311    1.396   .     A
C310   H324    1.083   .     S
C310   C309    1.405   1_554 A
C311   H325    1.083   .     S
C311   C306    1.406   1_554 A
C312   C317    1.407   .     A
C312   C313    1.406   1_556 A
C313   C314    1.397   .     A
C313   H326    1.083   .     S
C313   C312    1.406   1_554 A
C314   H327    1.083   .     S
C314   C315    1.403   1_554 A
C315   C316    1.404   .     A
C315   C314    1.403   1_556 A
C315   C42     1.475   1_556 S
C316   C317    1.399   .     A
C316   H328    1.083   .     S
C317   H329    1.083   .     S
