data_kag+N248+E191
_audit_creation_date              2025-01-21
_audit_creation_method            'Materials Studio'
_symmetry_space_group_name_H-M    'P1'
_symmetry_Int_Tables_number       1
_symmetry_cell_setting            triclinic
loop_
_symmetry_equiv_pos_as_xyz
  x,y,z
_cell_length_a                    36.8668
_cell_length_b                    39.4251
_cell_length_c                    17.7297
_cell_angle_alpha                 93.2215
_cell_angle_beta                  89.0062
_cell_angle_gamma                 127.6135
loop_
_atom_site_label
_atom_site_type_symbol
_atom_site_fract_x
_atom_site_fract_y
_atom_site_fract_z
_atom_site_U_iso_or_equiv
_atom_site_adp_type
_atom_site_occupancy
O0     O     0.51218   0.53665   0.89050   0.00000  Uiso   1.00
Yb1    Yb    0.49112   0.46118   1.00269   0.00000  Uiso   1.00
C2     C     0.47162   0.38687  -0.00624   0.00000  Uiso   1.00
Yb3    Yb    0.51720   0.54536   0.01252   0.00000  Uiso   1.00
O4     O     0.49251   0.46882   0.88246   0.00000  Uiso   1.00
C5     C     0.42993   0.50295   0.01611   0.00000  Uiso   1.00
C6     C     0.50205   0.50266   0.85175   0.00000  Uiso   1.00
O7     O     0.49604   0.58523   1.02049   0.00000  Uiso   1.00
C8     C     0.53731   0.61981   1.02009   0.00000  Uiso   1.00
O9     O     0.55174   0.46486   0.99860   0.00000  Uiso   1.00
O10    O     0.55779   0.52412   0.00664   0.00000  Uiso   1.00
O11    O     0.49569   0.46978   0.12475   0.00000  Uiso   1.00
O12    O     0.56798   0.61416   0.01638   0.00000  Uiso   1.00
O13    O     0.51630   0.53802   0.13258   0.00000  Uiso   1.00
C14    C     0.57862   0.50420   1.00279   0.00000  Uiso   1.00
C15    C     0.50631   0.50401   0.16334   0.00000  Uiso   1.00
O16    O     0.51278   0.42168  -0.00524   0.00000  Uiso   1.00
O17    O     0.44072   0.39224   0.99750   0.00000  Uiso   1.00
O18    O     0.45728   0.54227   0.01894   0.00000  Uiso   1.00
O19    O     0.45015   0.48237   1.00995   0.00000  Uiso   1.00
O20    O     0.97679   0.50715   0.88294   0.00000  Uiso   1.00
Yb21   Yb    0.03275   0.48912  -0.00005   0.00000  Uiso   1.00
C22    C     0.09027   0.47330  -0.00528   0.00000  Uiso   1.00
Yb23   Yb    0.97208   0.51053   1.00456   0.00000  Uiso   1.00
O24    O     0.02679   0.49061   0.87926   0.00000  Uiso   1.00
C25    C     0.91302   0.42815  -0.00063   0.00000  Uiso   1.00
C26    C     0.00167   0.49868   0.84637   0.00000  Uiso   1.00
O27    O     0.90255   0.48791   1.00388   0.00000  Uiso   1.00
C28    C     0.91417   0.52594   1.00663   0.00000  Uiso   1.00
O29    O     0.10191   0.54700   1.00329   0.00000  Uiso   1.00
O30    O     0.04467   0.55065   0.00684   0.00000  Uiso   1.00
O31    O     0.02821   0.49266   0.12161   0.00000  Uiso   1.00
O32    O     0.95743   0.55589   0.00912   0.00000  Uiso   1.00
O33    O     0.97800   0.50908   0.12533   0.00000  Uiso   1.00
C34    C     0.09180   0.57151   1.00768   0.00000  Uiso   1.00
C35    C     0.00336   0.50121   0.15818   0.00000  Uiso   1.00
O36    O     0.10216   0.51145  -0.00169   0.00000  Uiso   1.00
O37    O     0.04701   0.44351   0.99470   0.00000  Uiso   1.00
O38    O     0.90302   0.45273   0.00155   0.00000  Uiso   1.00
O39    O     0.96014   0.44893   0.99925   0.00000  Uiso   1.00
O40    O     0.48390   0.01857   0.10413   0.00000  Uiso   1.00
Yb41   Yb    0.51145   0.96916  -0.02810   0.00000  Uiso   1.00
C42    C     0.53458   0.92089   0.96414   0.00000  Uiso   1.00
Yb43   Yb    0.48077   0.02224   0.98274   0.00000  Uiso   1.00
O44    O     0.50799   0.97622   0.09798   0.00000  Uiso   1.00
C45    C     0.56760   0.07597  -0.02081   0.00000  Uiso   1.00
C46    C     0.49813  -0.00058   0.13629   0.00000  Uiso   1.00
O47    O     0.50327   0.08655  -0.00524   0.00000  Uiso   1.00
C48    C     0.46261   0.07507  -0.01164   0.00000  Uiso   1.00
O49    O     0.46083   0.93045   0.05592   0.00000  Uiso   1.00
O50    O     0.44425   0.95408   0.96493   0.00000  Uiso   1.00
O51    O     0.51934   0.98367   0.85471   0.00000  Uiso   1.00
O52    O     0.43136   0.03462   0.97749   0.00000  Uiso   1.00
O53    O     0.48876   0.02007   0.86129   0.00000  Uiso   1.00
C54    C     0.42968   0.92834   0.02584   0.00000  Uiso   1.00
C55    C     0.50575   0.00347   0.82373   0.00000  Uiso   1.00
O56    O     0.49417   0.90779   0.94736   0.00000  Uiso   1.00
O57    O     0.56321   0.96090  -0.01597   0.00000  Uiso   1.00
O58    O     0.54289   0.08688   0.97576   0.00000  Uiso   1.00
O59    O     0.54413   0.03449   0.00208   0.00000  Uiso   1.00
Ni60   Ni    0.50428   0.50362   0.50750   0.00000  Uiso   1.00
C61    C     0.50671   0.50422   0.24693   0.00000  Uiso   1.00
C62    C     0.51489   0.53908   0.29125   0.00000  Uiso   1.00
C63    C     0.51421   0.53829   0.36993   0.00000  Uiso   1.00
C64    C     0.49800   0.47001   0.36242   0.00000  Uiso   1.00
C65    C     0.49831   0.46940   0.28354   0.00000  Uiso   1.00
H66    H     0.51344   0.56364   0.76358   0.00000  Uiso   1.00
H67    H     0.49032   0.44178   0.74912   0.00000  Uiso   1.00
H68    H     0.49152   0.44367   0.61038   0.00000  Uiso   1.00
H69    H     0.51406   0.56258   0.62436   0.00000  Uiso   1.00
N70    N     0.50283   0.50313   0.61130   0.00000  Uiso   1.00
N71    N     0.50571   0.50405   0.40369   0.00000  Uiso   1.00
H72    H     0.52146   0.56657   0.26549   0.00000  Uiso   1.00
H73    H     0.52030   0.56495   0.40427   0.00000  Uiso   1.00
H74    H     0.49147   0.44326   0.39092   0.00000  Uiso   1.00
H75    H     0.49193   0.44190   0.25170   0.00000  Uiso   1.00
C76    C     0.50173   0.50262   0.76810   0.00000  Uiso   1.00
C77    C     0.49539   0.46867   0.72356   0.00000  Uiso   1.00
C78    C     0.49611   0.46961   0.64488   0.00000  Uiso   1.00
C79    C     0.50882   0.53635   0.65273   0.00000  Uiso   1.00
C80    C     0.50844   0.53679   0.73163   0.00000  Uiso   1.00
Ni81   Ni    0.00299   0.50036   0.50229   0.00000  Uiso   1.00
C82    C     1.00148   0.49840   0.76270   0.00000  Uiso   1.00
C83    C     0.97558   0.50752   0.72425   0.00000  Uiso   1.00
C84    C     0.97642   0.50774   0.64548   0.00000  Uiso   1.00
C85    C     0.02725   0.48986   0.64140   0.00000  Uiso   1.00
C86    C     0.02745   0.48931   0.72014   0.00000  Uiso   1.00
H87    H     0.95761   0.51834   0.25757   0.00000  Uiso   1.00
H88    H     0.05050   0.48576   0.24971   0.00000  Uiso   1.00
H89    H     0.04922   0.48578   0.38862   0.00000  Uiso   1.00
H90    H     0.95857   0.51761   0.39643   0.00000  Uiso   1.00
N91    N     0.00380   0.50156   0.39862   0.00000  Uiso   1.00
N92    N     1.00213   0.49914   0.60597   0.00000  Uiso   1.00
H93    H     0.95497   0.51461   0.75458   0.00000  Uiso   1.00
H94    H     0.95666   0.51488   0.61567   0.00000  Uiso   1.00
H95    H     0.04726   0.48298   0.60841   0.00000  Uiso   1.00
H96    H     0.04782   0.48197   0.74724   0.00000  Uiso   1.00
C97    C     0.00389   0.50185   0.24185   0.00000  Uiso   1.00
C98    C     0.02999   0.49290   0.28018   0.00000  Uiso   1.00
C99    C     0.02941   0.49290   0.35895   0.00000  Uiso   1.00
C100   C     0.97854   0.51074   0.36331   0.00000  Uiso   1.00
C101   C     0.97809   0.51109   0.28456   0.00000  Uiso   1.00
Ni102  Ni    0.50753   0.00688   0.48048   0.00000  Uiso   1.00
C103   C     0.50066   1.00156   0.21990   0.00000  Uiso   1.00
C104   C     0.51182  -0.02157   0.25729   0.00000  Uiso   1.00
C105   C     0.51388  -0.01925   0.33614   0.00000  Uiso   1.00
C106   C     0.49439   1.02807   0.34228   0.00000  Uiso   1.00
C107   C     0.49190   1.02666   0.26349   0.00000  Uiso   1.00
H108   H     0.53263  -0.03189   0.72177   0.00000  Uiso   1.00
H109   H     0.48508   1.04507   0.73622   0.00000  Uiso   1.00
H110   H     0.48623   1.04547   0.59730   0.00000  Uiso   1.00
H111   H     0.53269  -0.02961   0.58322   0.00000  Uiso   1.00
N112   N     0.50960   0.00808   0.58423   0.00000  Uiso   1.00
N113   N     0.50523   0.00529   0.37671   0.00000  Uiso   1.00
H114   H     0.51873  -0.04141   0.22611   0.00000  Uiso   1.00
H115   H     0.52225  -0.03713   0.36524   0.00000  Uiso   1.00
H116   H     0.48757   1.04724   0.37613   0.00000  Uiso   1.00
H117   H     0.48322   1.04504   0.23712   0.00000  Uiso   1.00
C118   C     0.50882   0.00649   0.74068   0.00000  Uiso   1.00
C119   C     0.49606   0.02866   0.70434   0.00000  Uiso   1.00
C120   C     0.49668   1.02902   0.62562   0.00000  Uiso   1.00
C121   C     0.52279  -0.01308   0.61773   0.00000  Uiso   1.00
C122   C     0.52272  -0.01425   0.69630   0.00000  Uiso   1.00
Ni123  Ni    0.24177   0.45455   0.00503   0.00000  Uiso   1.00
C124   C     0.38071   0.48131   1.02198   0.00000  Uiso   1.00
C125   C     0.34959   0.45172   0.96525   0.00000  Uiso   1.00
C126   C     0.30527   0.44016   0.96361   0.00000  Uiso   1.00
C127   C     0.32142   0.48308   0.07610   0.00000  Uiso   1.00
C128   C     0.36594   0.49606   0.07898   0.00000  Uiso   1.00
H129   H     0.07928   0.39872   1.01704   0.00000  Uiso   1.00
H130   H     0.18004   0.53125  -0.03513   0.00000  Uiso   1.00
H131   H     0.23927   0.52097  -0.03181   0.00000  Uiso   1.00
H132   H     0.14161   0.39146   1.02029   0.00000  Uiso   1.00
N133   N     0.19312   0.45584  -0.00643   0.00000  Uiso   1.00
N134   N     0.29269   0.45690   0.01771   0.00000  Uiso   1.00
H135   H     0.36050   0.44052   0.91973   0.00000  Uiso   1.00
H136   H     0.28208   0.42018   0.91677   0.00000  Uiso   1.00
H137   H     0.31076   0.49652   0.11732   0.00000  Uiso   1.00
H138   H     0.38946   0.51932   0.12300   0.00000  Uiso   1.00
C139   C     0.12484   0.46573  -0.00890   0.00000  Uiso   1.00
C140   C     0.17032   0.49999  -0.02377   0.00000  Uiso   1.00
C141   C     0.20394   0.49427  -0.02240   0.00000  Uiso   1.00
C142   C     0.14918   0.42158   1.00675   0.00000  Uiso   1.00
C143   C     0.11404   0.42580   1.00513   0.00000  Uiso   1.00
Ni144  Ni    0.75854   0.23627  -0.02043   0.00000  Uiso   1.00
C145   C     0.87729   0.38128  -0.00227   0.00000  Uiso   1.00
C146   C     0.83145   0.36496   0.00605   0.00000  Uiso   1.00
C147   C     0.79717   0.32091   0.00242   0.00000  Uiso   1.00
C148   C     0.85182   0.30815   0.98321   0.00000  Uiso   1.00
C149   C     0.88761   0.35246   0.98700   0.00000  Uiso   1.00
H150   H     0.63684   0.09479   0.07271   0.00000  Uiso   1.00
H151   H     0.60952   0.12820   0.86500   0.00000  Uiso   1.00
H152   H     0.68975   0.19311   0.86625   0.00000  Uiso   1.00
H153   H     0.71685   0.16154   0.07080   0.00000  Uiso   1.00
N154   N     0.70703   0.18004   0.96788   0.00000  Uiso   1.00
N155   N     0.80766   0.29353  -0.00941   0.00000  Uiso   1.00
H156   H     0.82203   0.38608   0.01466   0.00000  Uiso   1.00
H157   H     0.76173   0.30827   0.00767   0.00000  Uiso   1.00
H158   H     0.85916   0.28558   0.97336   0.00000  Uiso   1.00
H159   H     0.92265   0.36402   0.98045   0.00000  Uiso   1.00
C160   C     0.61717   0.10669   0.96903   0.00000  Uiso   1.00
C161   C     0.63293   0.13374   0.90897   0.00000  Uiso   1.00
C162   C     0.67836   0.17034   0.90929   0.00000  Uiso   1.00
C163   C     0.69360   0.15262   0.02406   0.00000  Uiso   1.00
C164   C     0.64832   0.11493   0.02516   0.00000  Uiso   1.00
Ni165  Ni    0.76442   0.54799   1.00749   0.00000  Uiso   1.00
C166   C     0.87931   0.53316   1.00619   0.00000  Uiso   1.00
C167   C     0.89110   0.57449   1.01311   0.00000  Uiso   1.00
C168   C     0.85635   0.57926   1.01265   0.00000  Uiso   1.00
C169   C     0.79961   0.50385  -0.00193   0.00000  Uiso   1.00
C170   C     0.83291   0.49764  -0.00153   0.00000  Uiso   1.00
H171   H     0.63925   0.53859   0.88855   0.00000  Uiso   1.00
H172   H     0.62771   0.51665   0.12618   0.00000  Uiso   1.00
H173   H     0.70567   0.53692   0.12622   0.00000  Uiso   1.00
H174   H     0.71706   0.55803   0.89302   0.00000  Uiso   1.00
N175   N     0.71519   0.54906   1.01006   0.00000  Uiso   1.00
N176   N     0.81167   0.54402   1.00529   0.00000  Uiso   1.00
H177   H     0.92656   0.60259   1.01928   0.00000  Uiso   1.00
H178   H     0.86498   0.61090   1.01863   0.00000  Uiso   1.00
H179   H     0.76380   0.47650  -0.00748   0.00000  Uiso   1.00
H180   H     0.82229   0.46521  -0.00706   0.00000  Uiso   1.00
C181   C     0.62807   0.52685   0.00747   0.00000  Uiso   1.00
C182   C     0.64755   0.52764   0.07520   0.00000  Uiso   1.00
C183   C     0.69163   0.53915   0.07534   0.00000  Uiso   1.00
C184   C     0.69803   0.55100   0.94447   0.00000  Uiso   1.00
C185   C     0.65405   0.53995   0.94195   0.00000  Uiso   1.00
Ni186  Ni    0.24363   0.76388   1.04634   0.00000  Uiso   1.00
C187   C     0.38129   0.89656   0.04521   0.00000  Uiso   1.00
C188   C     0.34661   0.88564  -0.00603   0.00000  Uiso   1.00
C189   C     0.30261   0.84713   0.00040   0.00000  Uiso   1.00
C190   C     0.32532   0.83301   1.11117   0.00000  Uiso   1.00
C191   C     0.36974   0.87103   0.10669   0.00000  Uiso   1.00
H192   H     0.08066   0.63432   0.03093   0.00000  Uiso   1.00
H193   H     0.18366   0.61496   1.00269   0.00000  Uiso   1.00
H194   H     0.24308   0.69284   1.02006   0.00000  Uiso   1.00
H195   H     0.14311   0.71270   0.04784   0.00000  Uiso   1.00
N196   N     0.19585   0.70618   1.03484   0.00000  Uiso   1.00
N197   N     0.29351   0.82092   0.05642   0.00000  Uiso   1.00
H198   H     0.35438   0.90446  -0.05443   0.00000  Uiso   1.00
H199   H     0.27688   0.83644  -0.04302   0.00000  Uiso   1.00
H200   H     0.31731   0.81122   1.15443   0.00000  Uiso   1.00
H201   H     0.39566   0.87844   1.14721   0.00000  Uiso   1.00
C202   C     0.12728   0.61842   1.01527   0.00000  Uiso   1.00
C203   C     0.17357   0.63551   1.01227   0.00000  Uiso   1.00
C204   C     0.20734   0.67958   1.02222   0.00000  Uiso   1.00
C205   C     0.15127   0.69075   1.03775   0.00000  Uiso   1.00
C206   C     0.11605   0.64648   1.02794   0.00000  Uiso   1.00
Ni207  Ni    0.56038   0.78446   0.99239   0.00000  Uiso   1.00
C208   C     0.54602   0.89096  -0.03724   0.00000  Uiso   1.00
C209   C     0.51649   0.85051  -0.07517   0.00000  Uiso   1.00
C210   C     0.52384   0.82009  -0.06867   0.00000  Uiso   1.00
C211   C     0.58951   0.86876   1.00976   0.00000  Uiso   1.00
C212   C     0.58367   0.90050   1.00412   0.00000  Uiso   1.00
H213   H     0.48000   0.63779   0.06414   0.00000  Uiso   1.00
H214   H     0.61572   0.69704   0.97838   0.00000  Uiso   1.00
H215   H     0.62438   0.76417   0.96762   0.00000  Uiso   1.00
H216   H     0.49180   0.70569   0.05264   0.00000  Uiso   1.00
N217   N     0.55855   0.73792   1.01013   0.00000  Uiso   1.00
N218   N     0.55922   0.82931   0.97446   0.00000  Uiso   1.00
H219   H     0.48711   0.84198  -0.10766   0.00000  Uiso   1.00
H220   H     0.50009   0.78828  -0.09542   0.00000  Uiso   1.00
H221   H     0.61703   0.87501   1.04455   0.00000  Uiso   1.00
H222   H     0.60690   0.93129   1.03468   0.00000  Uiso   1.00
C223   C     0.54703   0.66207   1.02201   0.00000  Uiso   1.00
C224   C     0.58847   0.69848   0.99648   0.00000  Uiso   1.00
C225   C     0.59343   0.73645   0.99035   0.00000  Uiso   1.00
C226   C     0.51900   0.70359   0.03791   0.00000  Uiso   1.00
C227   C     0.51242   0.66518   0.04411   0.00000  Uiso   1.00
Ni228  Ni    0.44439   0.21823  -0.00967   0.00000  Uiso   1.00
C229   C     0.46217   0.34460  -0.01095   0.00000  Uiso   1.00
C230   C     0.49856   0.34281  -0.02452   0.00000  Uiso   1.00
C231   C     0.49090   0.30361  -0.02584   0.00000  Uiso   1.00
C232   C     0.41215   0.26738   0.99865   0.00000  Uiso   1.00
C233   C     0.41829   0.30627   1.00007   0.00000  Uiso   1.00
H234   H     0.52083   0.15675   0.04493   0.00000  Uiso   1.00
H235   H     0.38592   0.06675   0.94244   0.00000  Uiso   1.00
H236   H     0.37882   0.12562   0.94401   0.00000  Uiso   1.00
H237   H     0.51059   0.21262   0.04515   0.00000  Uiso   1.00
N238   N     0.44435   0.17168  -0.00473   0.00000  Uiso   1.00
N239   N     0.44847   0.26702  -0.01391   0.00000  Uiso   1.00
H240   H     0.53292   0.37156  -0.03320   0.00000  Uiso   1.00
H241   H     0.51913   0.30230  -0.03486   0.00000  Uiso   1.00
H242   H     0.37879   0.23780   1.00880   0.00000  Uiso   1.00
H243   H     0.38949   0.30653   1.01121   0.00000  Uiso   1.00
C244   C     0.45416   0.10721  -0.00670   0.00000  Uiso   1.00
C245   C     0.41343   0.09838   0.96618   0.00000  Uiso   1.00
C246   C     0.40931   0.13158   0.96712   0.00000  Uiso   1.00
C247   C     0.48328   0.18038   0.02376   0.00000  Uiso   1.00
C248   C     0.48900   0.14865   0.02317   0.00000  Uiso   1.00
loop_
_geom_bond_atom_site_label_1
_geom_bond_atom_site_label_2
_geom_bond_distance
_geom_bond_site_symmetry_2
_ccdc_geom_bond_type
O0     C6      1.304   .     A
O0     Yb3     2.165   1_556 S
Yb1    O4      2.165   .     S
Yb1    O9      2.150   .     S
Yb1    O17     2.159   .     S
Yb1    O19     2.125   .     S
Yb1    Yb3     2.831   1_556 S
Yb1    O10     2.178   1_556 S
Yb1    O11     2.165   1_556 S
Yb1    O16     2.138   1_556 S
C2     O16     1.282   .     A
C2     C229    1.477   .     S
C2     O17     1.279   1_554 A
Yb3    O10     2.113   .     S
Yb3    O12     2.157   .     S
Yb3    O13     2.161   .     S
Yb3    O18     2.138   .     S
Yb3    O0      2.165   1_554 S
Yb3    Yb1     2.831   1_554 S
Yb3    O7      2.137   1_554 S
Yb3    O19     2.186   1_554 S
O4     C6      1.305   .     A
C5     O18     1.228   .     D
C5     O19     1.397   1_554 S
C5     C124    1.465   1_554 S
C6     C76     1.483   .     S
O7     C8      1.282   .     A
O7     Yb3     2.137   1_556 S
C8     C223    1.473   .     S
C8     O12     1.279   1_556 A
O9     C14     1.227   .     D
O10    Yb1     2.178   1_554 S
O10    C14     1.393   1_554 S
O11    C15     1.305   .     A
O11    Yb1     2.165   1_554 S
O12    C8      1.279   1_554 A
O13    C15     1.305   .     A
C14    O10     1.393   1_556 S
C14    C181    1.462   1_556 S
C15    C61     1.482   .     S
O16    Yb1     2.138   1_554 S
O17    C2      1.279   1_556 A
O19    Yb3     2.186   1_556 S
O19    C5      1.397   1_556 S
O20    Yb23    2.164   .     S
O20    C26     1.305   1_655 A
Yb21   O30     2.182   .     S
Yb21   O31     2.164   .     S
Yb21   O36     2.139   .     S
Yb21   Yb23    2.831   1_454 S
Yb21   O24     2.163   1_554 S
Yb21   O29     2.145   1_554 S
Yb21   O37     2.157   1_554 S
Yb21   O39     2.121   1_454 S
C22    O36     1.282   .     A
C22    C139    1.475   .     S
C22    O37     1.279   1_554 A
Yb23   O27     2.139   .     S
Yb23   O39     2.185   .     S
Yb23   Yb21    2.831   1_656 S
Yb23   O30     2.120   1_656 S
Yb23   O32     2.158   1_556 S
Yb23   O33     2.163   1_556 S
Yb23   O38     2.142   1_556 S
O24    C26     1.303   .     A
O24    Yb21    2.163   1_556 S
C25    O38     1.228   .     D
C25    C145    1.475   .     S
C25    O39     1.397   1_554 S
C26    O20     1.305   1_455 A
C26    C82     1.483   1_455 S
O27    C28     1.281   .     A
C28    C166    1.477   .     S
C28    O32     1.280   1_556 A
O29    C34     1.228   .     D
O29    Yb21    2.145   1_556 S
O30    Yb23    2.120   1_454 S
O30    C34     1.397   1_554 S
O31    C35     1.306   .     A
O32    Yb23    2.158   1_554 S
O32    C28     1.280   1_554 A
O33    Yb23    2.163   1_554 S
O33    C35     1.305   1_655 A
C34    C202    1.475   .     S
C34    O30     1.397   1_556 S
C35    C97     1.483   .     S
C35    O33     1.305   1_455 A
O37    Yb21    2.157   1_556 S
O37    C22     1.279   1_556 A
O38    Yb23    2.142   1_554 S
O39    Yb21    2.121   1_656 S
O39    C25     1.397   1_556 S
O40    C46     1.309   .     A
O40    Yb43    2.175   1_554 S
Yb41   O44     2.248   .     S
Yb41   O49     2.171   .     S
Yb41   O57     2.138   .     S
Yb41   Yb43    2.921   1_564 S
Yb41   O50     2.171   1_554 S
Yb41   O51     2.154   1_554 S
Yb41   O56     2.111   1_554 S
Yb41   O59     2.110   1_565 S
C42    O56     1.278   .     A
C42    O57     1.282   1_556 A
C42    C208    1.475   1_556 S
Yb43   O52     2.159   .     S
Yb43   O53     2.172   .     S
Yb43   O58     2.158   .     S
Yb43   O40     2.175   1_556 S
Yb43   Yb41    2.921   1_546 S
Yb43   O47     2.131   1_556 S
Yb43   O50     2.153   1_545 S
Yb43   O59     2.107   1_556 S
O44    C46     1.325   1_565 A
C45    O59     1.387   .     S
C45    O58     1.225   1_554 D
C45    C160    1.466   1_554 S
C46    O44     1.325   1_545 A
C46    C103    1.481   1_545 S
O47    C48     1.280   .     A
O47    Yb43    2.131   1_554 S
C48    C244    1.476   .     S
C48    O52     1.280   1_554 A
O49    C54     1.229   .     D
O50    Yb41    2.171   1_556 S
O50    Yb43    2.153   1_565 S
O50    C54     1.386   1_556 S
O51    Yb41    2.154   1_556 S
O51    C55     1.303   1_565 A
O52    C48     1.280   1_556 A
O53    C55     1.304   .     A
C54    C187    1.473   .     S
C54    O50     1.386   1_554 S
C55    C118    1.481   .     S
C55    O51     1.303   1_545 A
O56    Yb41    2.111   1_556 S
O57    C42     1.282   1_554 A
O58    C45     1.225   1_556 D
O59    Yb41    2.110   1_545 S
O59    Yb43    2.107   1_554 S
Ni60   N70     1.841   .     S
Ni60   N71     1.841   .     S
C61    C62     1.406   .     A
C61    C65     1.406   .     A
C62    C63     1.397   .     A
C62    H72     1.083   .     S
C63    N71     1.359   .     A
C63    H73     1.082   .     S
C64    C65     1.397   .     A
C64    N71     1.360   .     A
C64    H74     1.082   .     S
C65    H75     1.083   .     S
H66    C80     1.083   .     S
H67    C77     1.083   .     S
H68    C78     1.082   .     S
H69    C79     1.082   .     S
N70    C78     1.359   .     A
N70    C79     1.359   .     A
C76    C77     1.406   .     A
C76    C80     1.407   .     A
C77    C78     1.397   .     A
C79    C80     1.398   .     A
Ni81   N91     1.841   .     S
Ni81   N92     1.841   1_455 S
C82    C83     1.405   .     A
C82    C86     1.407   1_655 A
C82    C26     1.483   1_655 S
C83    C84     1.397   .     A
C83    H93     1.083   .     S
C84    N92     1.359   .     A
C84    H94     1.081   .     S
C85    C86     1.398   .     A
C85    H95     1.082   .     S
C85    N92     1.359   1_455 A
C86    H96     1.083   .     S
C86    C82     1.407   1_455 A
H87    C101    1.083   .     S
H88    C98     1.083   .     S
H89    C99     1.082   .     S
H90    C100    1.082   .     S
N91    C99     1.358   .     A
N91    C100    1.359   1_455 A
N92    Ni81    1.841   1_655 S
N92    C85     1.359   1_655 A
C97    C98     1.406   .     A
C97    C101    1.406   1_455 A
C98    C99     1.396   .     A
C100   C101    1.397   .     A
C100   N91     1.359   1_655 A
C101   C97     1.406   1_655 A
Ni102  N112    1.839   .     S
Ni102  N113    1.839   .     S
C103   C107    1.406   .     A
C103   C104    1.406   1_565 A
C103   C46     1.481   1_565 S
C104   C105    1.396   .     A
C104   H114    1.083   .     S
C104   C103    1.406   1_545 A
C105   N113    1.358   .     A
C105   H115    1.082   .     S
C106   C107    1.397   .     A
C106   H116    1.082   .     S
C106   N113    1.359   1_565 A
C107   H117    1.083   .     S
H108   C122    1.083   .     S
H109   C119    1.083   1_565 S
H110   C120    1.082   .     S
H111   C121    1.082   .     S
N112   C121    1.359   .     A
N112   C120    1.359   1_545 A
N113   C106    1.359   1_545 A
C118   C119    1.406   .     A
C118   C122    1.406   .     A
C119   H109    1.083   1_545 S
C119   C120    1.396   1_545 A
C120   N112    1.359   1_565 A
C120   C119    1.396   1_565 A
C121   C122    1.396   .     A
Ni123  N133    1.840   .     S
Ni123  N134    1.840   .     S
C124   C125    1.401   .     A
C124   C128    1.399   1_556 A
C124   C5      1.465   1_556 S
C125   C126    1.403   .     A
C125   H135    1.083   .     S
C126   H136    1.082   .     S
C126   N134    1.363   1_556 A
C127   C128    1.390   .     A
C127   N134    1.357   .     A
C127   H137    1.082   .     S
C128   H138    1.084   .     S
C128   C124    1.399   1_554 A
H129   C143    1.083   .     S
H130   C140    1.084   .     S
H131   C141    1.082   .     S
H132   C142    1.082   .     S
N133   C141    1.357   .     A
N133   C142    1.362   1_554 A
N134   C126    1.363   1_554 A
C139   C140    1.402   .     A
C139   C143    1.405   1_554 A
C140   C141    1.390   .     A
C142   C143    1.404   .     A
C142   N133    1.362   1_556 A
C143   C139    1.405   1_556 A
Ni144  N155    1.840   .     S
Ni144  N154    1.840   1_554 S
C145   C146    1.402   .     A
C145   C149    1.405   1_554 A
C146   C147    1.389   .     A
C146   H156    1.083   .     S
C147   N155    1.357   .     A
C147   H157    1.082   .     S
C148   C149    1.405   .     A
C148   H158    1.082   .     S
C148   N155    1.362   1_556 A
C149   H159    1.083   .     S
C149   C145    1.405   1_556 A
H150   C164    1.083   .     S
H151   C161    1.084   .     S
H152   C162    1.082   .     S
H153   C163    1.081   .     S
N154   C162    1.357   .     A
N154   Ni144   1.840   1_556 S
N154   C163    1.363   1_556 A
N155   C148    1.362   1_554 A
C160   C161    1.400   .     A
C160   C164    1.401   1_556 A
C160   C45     1.466   1_556 S
C161   C162    1.392   .     A
C163   C164    1.403   .     A
C163   N154    1.363   1_554 A
C164   C160    1.401   1_554 A
Ni165  N175    1.841   .     S
Ni165  N176    1.841   .     S
C166   C167    1.405   .     A
C166   C170    1.403   1_556 A
C167   C168    1.404   .     A
C167   H177    1.083   .     S
C168   N176    1.362   .     A
C168   H178    1.082   .     S
C169   C170    1.391   .     A
C169   H179    1.082   .     S
C169   N176    1.357   1_554 A
C170   H180    1.084   .     S
C170   C166    1.403   1_554 A
H171   C185    1.083   .     S
H172   C182    1.084   .     S
H173   C183    1.082   .     S
H174   C184    1.082   .     S
N175   C184    1.361   .     A
N175   C183    1.359   1_556 A
N176   C169    1.357   1_556 A
C181   C182    1.399   .     A
C181   C185    1.399   1_554 A
C181   C14     1.462   1_554 S
C182   C183    1.395   .     A
C183   N175    1.359   1_554 A
C184   C185    1.400   .     A
C185   C181    1.399   1_556 A
Ni186  N196    1.841   .     S
Ni186  N197    1.841   1_556 S
C187   C188    1.403   .     A
C187   C191    1.402   .     A
C188   C189    1.399   .     A
C188   H198    1.083   .     S
C189   N197    1.359   .     A
C189   H199    1.082   .     S
C190   H200    1.082   .     S
C190   C191    1.396   1_556 A
C190   N197    1.360   1_556 A
C191   C190    1.396   1_554 A
C191   H201    1.083   1_554 S
H192   C206    1.083   1_554 S
H193   C203    1.083   .     S
H194   C204    1.082   .     S
H195   C205    1.082   1_554 S
N196   C204    1.357   .     A
N196   C205    1.362   .     A
N197   Ni186   1.841   1_554 S
N197   C190    1.360   1_554 A
H201   C191    1.083   1_556 S
C202   C203    1.402   .     A
C202   C206    1.404   .     A
C203   C204    1.390   .     A
C205   C206    1.404   .     A
C205   H195    1.082   1_556 S
C206   H192    1.083   1_556 S
Ni207  N217    1.839   .     S
Ni207  N218    1.840   .     S
C208   C209    1.402   .     A
C208   C212    1.405   1_554 A
C208   C42     1.475   1_554 S
C209   C210    1.392   .     A
C209   H219    1.083   .     S
C210   H220    1.082   .     S
C210   N218    1.358   1_554 A
C211   C212    1.402   .     A
C211   N218    1.361   .     A
C211   H221    1.082   .     S
C212   H222    1.083   .     S
C212   C208    1.405   1_556 A
H213   C227    1.083   .     S
H214   C224    1.083   .     S
H215   C225    1.082   .     S
H216   C226    1.082   .     S
N217   C225    1.362   .     A
N217   C226    1.357   1_556 A
N218   C210    1.358   1_556 A
C223   C224    1.404   .     A
C223   C227    1.402   1_556 A
C224   C225    1.403   .     A
C226   C227    1.390   .     A
C226   N217    1.357   1_554 A
C227   C223    1.402   1_554 A
Ni228  N238    1.841   .     S
Ni228  N239    1.841   .     S
C229   C230    1.402   .     A
C229   C233    1.406   1_554 A
C230   C231    1.390   .     A
C230   H240    1.083   .     S
C231   N239    1.357   .     A
C231   H241    1.082   .     S
C232   C233    1.405   .     A
C232   H242    1.082   .     S
C232   N239    1.362   1_556 A
C233   H243    1.083   .     S
C233   C229    1.406   1_556 A
H234   C248    1.083   .     S
H235   C245    1.083   .     S
H236   C246    1.081   .     S
H237   C247    1.082   .     S
N238   C247    1.356   .     A
N238   C246    1.363   1_554 A
N239   C232    1.362   1_554 A
C244   C248    1.402   .     A
C244   C245    1.405   1_554 A
C245   C246    1.406   .     A
C245   C244    1.405   1_556 A
C246   N238    1.363   1_556 A
C247   C248    1.389   .     A
