data_kag+N144+E9
_audit_creation_date              2025-01-21
_audit_creation_method            'Materials Studio'
_symmetry_space_group_name_H-M    'P1'
_symmetry_Int_Tables_number       1
_symmetry_cell_setting            triclinic
loop_
_symmetry_equiv_pos_as_xyz
  x,y,z
_cell_length_a                    40.9220
_cell_length_b                    40.4946
_cell_length_c                    19.6229
_cell_angle_alpha                 82.9969
_cell_angle_beta                  93.7703
_cell_angle_gamma                 120.0768
loop_
_atom_site_label
_atom_site_type_symbol
_atom_site_fract_x
_atom_site_fract_y
_atom_site_fract_z
_atom_site_U_iso_or_equiv
_atom_site_adp_type
_atom_site_occupancy
C0     C     0.63774   0.58395   0.94778   0.00000  Uiso   1.00
Er1    Er    0.49210   0.52573  -0.00566   0.00000  Uiso   1.00
Er2    Er    0.55574   0.55112  -0.00183   0.00000  Uiso   1.00
C3     C     0.53537   0.61368  -0.01952   0.00000  Uiso   1.00
O4     O     0.55471   0.55063   0.88707   0.00000  Uiso   1.00
C5     C     0.52309   0.53726   0.13936   0.00000  Uiso   1.00
C6     C     0.51643   0.46521   0.00981   0.00000  Uiso   1.00
C7     C     0.42941   0.52904   0.99010   0.00000  Uiso   1.00
O8     O     0.62927   0.59848   0.89683   0.00000  Uiso   1.00
O9     O     0.61767   0.57404   1.00844   0.00000  Uiso   1.00
O10    O     0.54911   0.49428   0.01150   0.00000  Uiso   1.00
O11    O     0.48774   0.46956   0.00343   0.00000  Uiso   1.00
O12    O     0.55421   0.55043   0.10857   0.00000  Uiso   1.00
O13    O     0.49233   0.52435   0.10541   0.00000  Uiso   1.00
C14    C     0.52399   0.53946   0.85300   0.00000  Uiso   1.00
O15    O     0.49309   0.52780   0.88371   0.00000  Uiso   1.00
O16    O     0.56362   0.60851  -0.01447   0.00000  Uiso   1.00
O17    O     0.50181   0.58477  -0.01697   0.00000  Uiso   1.00
O18    O     0.43070   0.49846   0.99441   0.00000  Uiso   1.00
O19    O     0.46212   0.55866   0.98590   0.00000  Uiso   1.00
C20    C     0.95760   0.41767   0.97395   0.00000  Uiso   1.00
Er21   Er    0.03938   0.56718  -0.00017   0.00000  Uiso   1.00
Er22   Er    1.00492   0.50168   0.01238   0.00000  Uiso   1.00
C23    C     0.08781   0.52777   0.01801   0.00000  Uiso   1.00
O24    O     0.00497   0.50272   0.90134   0.00000  Uiso   1.00
C25    C     0.02175   0.53510   0.14881   0.00000  Uiso   1.00
C26    C     0.95485   0.53725  -0.00707   0.00000  Uiso   1.00
C27    C     0.10429   0.63183   0.99832   0.00000  Uiso   1.00
O28    O     0.97890   0.42717   0.92585   0.00000  Uiso   1.00
O29    O     0.96891   0.43823   1.03107   0.00000  Uiso   1.00
O30    O     0.95336   0.50504   0.00540   0.00000  Uiso   1.00
O31    O    -0.01338   0.56780  -0.01253   0.00000  Uiso   1.00
O32    O     0.00633   0.50343   0.12259   0.00000  Uiso   1.00
O33    O     0.03723   0.56666   0.11038   0.00000  Uiso   1.00
C34    C     0.02297   0.53419   0.86330   0.00000  Uiso   1.00
O35    O     0.04074   0.56587   0.88982   0.00000  Uiso   1.00
O36    O     0.05589   0.49725   0.01963   0.00000  Uiso   1.00
O37    O     0.08960   0.56047   0.01190   0.00000  Uiso   1.00
O38    O     0.07265   0.63005   0.98965   0.00000  Uiso   1.00
O39    O     0.10132   0.59881   1.00565   0.00000  Uiso   1.00
C40    C     0.48939   0.10958   0.97368   0.00000  Uiso   1.00
Er41   Er    0.53750   1.00974   0.05075   0.00000  Uiso   1.00
Er42   Er    0.51200   0.04867   0.03719   0.00000  Uiso   1.00
C43    C     0.45194   0.96536   0.05674   0.00000  Uiso   1.00
O44    O     0.51066   0.04790   0.92673   0.00000  Uiso   1.00
C45    C     0.52816   0.03343   0.18608   0.00000  Uiso   1.00
C46    C     0.59758   0.09291   0.02824   0.00000  Uiso   1.00
C47    C     0.55735   0.96329   1.00760   0.00000  Uiso   1.00
O48    O     0.48717   0.09776   0.91851   0.00000  Uiso   1.00
O49    O     0.48824   0.08769   1.03486   0.00000  Uiso   1.00
O50    O     0.56900   0.09740   0.03016   0.00000  Uiso   1.00
O51    O     0.59340   0.05935   0.03426   0.00000  Uiso   1.00
O52    O     0.51319   0.04959   0.14739   0.00000  Uiso   1.00
O53    O     0.54186   0.01587   0.16010   0.00000  Uiso   1.00
C54    C     0.52062   0.02721   0.90039   0.00000  Uiso   1.00
O55    O     0.53179   0.00693   0.93908   0.00000  Uiso   1.00
O56    O     0.45582  -0.00130   0.04394   0.00000  Uiso   1.00
O57    O     0.48084   0.96127   0.06546   0.00000  Uiso   1.00
O58    O     0.54438   0.98137   0.96806   0.00000  Uiso   1.00
O59    O     0.56110   0.97161   1.06843   0.00000  Uiso   1.00
C60    C     0.52273   0.53858   0.35190   0.00000  Uiso   1.00
N61    N     0.55546   0.55093   0.31833   0.00000  Uiso   1.00
N62    N     0.55552   0.55034   0.25062   0.00000  Uiso   1.00
C63    C     0.52283   0.53730   0.21402   0.00000  Uiso   1.00
N64    N     0.49007   0.52492   0.24753   0.00000  Uiso   1.00
N65    N     0.49002   0.52554   0.31528   0.00000  Uiso   1.00
C66    C     0.52282   0.53916   0.42664   0.00000  Uiso   1.00
N67    N     0.49029   0.52737   0.46051   0.00000  Uiso   1.00
N68    N     0.49045   0.52759   0.52841   0.00000  Uiso   1.00
C69    C     0.52314   0.53958   0.56490   0.00000  Uiso   1.00
N70    N     0.55564   0.55139   0.53099   0.00000  Uiso   1.00
N71    N     0.55549   0.55120   0.46313   0.00000  Uiso   1.00
C72    C     0.52340   0.53970   0.63981   0.00000  Uiso   1.00
N73    N     0.55603   0.55097   0.67627   0.00000  Uiso   1.00
N74    N     0.55631   0.55102   0.74421   0.00000  Uiso   1.00
C75    C     0.52396   0.53980   0.77814   0.00000  Uiso   1.00
N76    N     0.49135   0.52856   0.74170   0.00000  Uiso   1.00
N77    N     0.49106   0.52851   0.67378   0.00000  Uiso   1.00
C78    C     0.02247   0.53382   0.65027   0.00000  Uiso   1.00
N79    N     0.00443   0.50038   0.69159   0.00000  Uiso   1.00
N80    N     0.00469   0.50048   0.75951   0.00000  Uiso   1.00
C81    C     0.02305   0.53401   0.78858   0.00000  Uiso   1.00
N82    N     0.04115   0.56743   0.74729   0.00000  Uiso   1.00
N83    N     0.04086   0.56733   0.67939   0.00000  Uiso   1.00
C84    C     0.02205   0.53384   0.57534   0.00000  Uiso   1.00
N85    N     0.03987   0.56738   0.53427   0.00000  Uiso   1.00
N86    N     0.03958   0.56750   0.46632   0.00000  Uiso   1.00
C87    C     0.02146   0.53409   0.43689   0.00000  Uiso   1.00
N88    N     0.00358   0.50053   0.47794   0.00000  Uiso   1.00
N89    N     0.00385   0.50041   0.54593   0.00000  Uiso   1.00
C90    C     0.02145   0.53436   0.36195   0.00000  Uiso   1.00
N91    N     0.00414   0.50099   0.33238   0.00000  Uiso   1.00
N92    N     0.00426   0.50130   0.26443   0.00000  Uiso   1.00
C93    C     0.02164   0.53497   0.22356   0.00000  Uiso   1.00
N94    N     0.03897   0.56835   0.25309   0.00000  Uiso   1.00
N95    N     0.03888   0.56803   0.32106   0.00000  Uiso   1.00
C96    C     0.52743   0.03372   0.39883   0.00000  Uiso   1.00
N97    N     0.54271   1.01550   0.37084   0.00000  Uiso   1.00
N98    N     0.54344   1.01584   0.30297   0.00000  Uiso   1.00
C99    C     0.52893   0.03446   0.26063   0.00000  Uiso   1.00
N100   N     0.51384   0.05287   0.28856   0.00000  Uiso   1.00
N101   N     0.51314   0.05255   0.35644   0.00000  Uiso   1.00
C102   C     0.52597   0.03259   0.47372   0.00000  Uiso   1.00
N103   N     0.51145   0.05144   0.50197   0.00000  Uiso   1.00
N104   N     0.51004   0.05026   0.56995   0.00000  Uiso   1.00
C105   C     0.52299   0.03009   0.61214   0.00000  Uiso   1.00
N106   N     0.53743   1.01120   0.58385   0.00000  Uiso   1.00
N107   N     0.53892   1.01244   0.51592   0.00000  Uiso   1.00
C108   C     0.52166   0.02885   0.68712   0.00000  Uiso   1.00
N109   N     0.53363   1.00771   0.72898   0.00000  Uiso   1.00
N110   N     0.53286   1.00685   0.79695   0.00000  Uiso   1.00
C111   C     0.52008   0.02709   0.82559   0.00000  Uiso   1.00
N112   N     0.50804   0.04819   0.78379   0.00000  Uiso   1.00
N113   N     0.50876   0.04901   0.71578   0.00000  Uiso   1.00
C114   C     0.32801   0.52917   1.00301   0.00000  Uiso   1.00
N115   N     0.36098   0.56281   0.99186   0.00000  Uiso   1.00
N116   N     0.39344   0.56300   0.98689   0.00000  Uiso   1.00
C117   C     0.39394   0.52951   0.99252   0.00000  Uiso   1.00
N118   N     0.36101   0.49596   0.00359   0.00000  Uiso   1.00
N119   N     0.32864   0.49577   0.00872   0.00000  Uiso   1.00
C120   C     0.29211   0.52864   1.00867   0.00000  Uiso   1.00
N121   N     0.25944   0.49483   0.02066   0.00000  Uiso   1.00
N122   N     0.22674   0.49412   0.02520   0.00000  Uiso   1.00
C123   C     0.22556   0.52726   1.01802   0.00000  Uiso   1.00
N124   N     0.25823   0.56107   1.00611   0.00000  Uiso   1.00
N125   N     0.29093   0.56178   1.00155   0.00000  Uiso   1.00
C126   C     0.18955   0.52677   0.02122   0.00000  Uiso   1.00
N127   N     0.18901   0.56022   1.01283   0.00000  Uiso   1.00
N128   N     0.15652   0.56019   1.01298   0.00000  Uiso   1.00
C129   C     0.12324   0.52676   0.02142   0.00000  Uiso   1.00
N130   N     0.12366   0.49317   0.03043   0.00000  Uiso   1.00
N131   N     0.15629   0.49320   0.03042   0.00000  Uiso   1.00
C132   C     0.84977   0.32099   0.97663   0.00000  Uiso   1.00
N133   N     0.87640   0.32516   0.93316   0.00000  Uiso   1.00
N134   N     0.91081   0.35609   0.93153   0.00000  Uiso   1.00
C135   C     0.91985   0.38363   0.97397   0.00000  Uiso   1.00
N136   N     0.89324   0.37934   1.01742   0.00000  Uiso   1.00
N137   N     0.85880   0.34871   1.01846   0.00000  Uiso   1.00
C138   C     0.81191   0.28701   0.97972   0.00000  Uiso   1.00
N139   N     0.78321   0.28792   0.00868   0.00000  Uiso   1.00
N140   N     0.74899   0.25697   0.01392   0.00000  Uiso   1.00
C141   C     0.74226   0.22380   0.99112   0.00000  Uiso   1.00
N142   N     0.77096   0.22279   0.96214   0.00000  Uiso   1.00
N143   N     0.80518   0.25393   0.95625   0.00000  Uiso   1.00
C144   C     0.70466   0.18962  -0.00076   0.00000  Uiso   1.00
N145   N     0.69904   0.15430   0.99107   0.00000  Uiso   1.00
N146   N     0.66495   0.12334   1.00079   0.00000  Uiso   1.00
C147   C     0.63529   0.12667   0.01856   0.00000  Uiso   1.00
N148   N     0.64089   0.16200   0.02620   0.00000  Uiso   1.00
N149   N     0.67499   0.19285   0.01711   0.00000  Uiso   1.00
C150   C     0.85673   0.54519   0.96613   0.00000  Uiso   1.00
N151   N     0.85488   0.51199  -0.00533   0.00000  Uiso   1.00
N152   N     0.88605   0.50917   0.00287   0.00000  Uiso   1.00
C153   C     0.92020   0.53966  -0.01628   0.00000  Uiso   1.00
N154   N     0.92198   0.57279  -0.04469   0.00000  Uiso   1.00
N155   N     0.89082   0.57546  -0.05362   0.00000  Uiso   1.00
C156   C     0.82281   0.54904   0.95893   0.00000  Uiso   1.00
N157   N     0.82296   0.57839   0.91701   0.00000  Uiso   1.00
N158   N     0.79283   0.58299   0.91252   0.00000  Uiso   1.00
C159   C     0.76160   0.55867   0.95045   0.00000  Uiso   1.00
N160   N     0.76143   0.52929   0.99234   0.00000  Uiso   1.00
N161   N     0.79141   0.52443   0.99624   0.00000  Uiso   1.00
C162   C     0.72906   0.56480   0.94821   0.00000  Uiso   1.00
N163   N     0.70217   0.54666   0.99743   0.00000  Uiso   1.00
N164   N     0.67325   0.55304   0.99704   0.00000  Uiso   1.00
C165   C     0.66992   0.57750   0.94710   0.00000  Uiso   1.00
N166   N     0.69662   0.59544   0.89739   0.00000  Uiso   1.00
N167   N     0.72583   0.58939   0.89824   0.00000  Uiso   1.00
C168   C     0.34555   0.86735   0.05427   0.00000  Uiso   1.00
N169   N     0.34903   0.90272   1.04264   0.00000  Uiso   1.00
N170   N     0.38287   0.93416   1.04503   0.00000  Uiso   1.00
C171   C     0.41430   0.93122   0.05921   0.00000  Uiso   1.00
N172   N     0.41071   0.89587   0.07147   0.00000  Uiso   1.00
N173   N     0.37695   0.86451   0.06912   0.00000  Uiso   1.00
C174   C     0.30891   0.83258   0.04744   0.00000  Uiso   1.00
N175   N     0.30661   0.79773   0.05544   0.00000  Uiso   1.00
N176   N     0.27388   0.76606   0.04653   0.00000  Uiso   1.00
C177   C     0.24224   0.76806   1.02919   0.00000  Uiso   1.00
N178   N     0.24444   0.80292   1.02141   0.00000  Uiso   1.00
N179   N     0.27725   0.83467   1.03023   0.00000  Uiso   1.00
C180   C     0.20637   0.73292   1.01916   0.00000  Uiso   1.00
N181   N     0.17393   0.73401   1.00565   0.00000  Uiso   1.00
N182   N     0.14139   0.70184   0.99770   0.00000  Uiso   1.00
C183   C     0.14023   0.66753   1.00270   0.00000  Uiso   1.00
N184   N     0.17266   0.66647   0.01597   0.00000  Uiso   1.00
N185   N     0.20515   0.69859   0.02395   0.00000  Uiso   1.00
C186   C     0.56870   0.87163   0.96269   0.00000  Uiso   1.00
N187   N     0.58640   0.89071   0.01802   0.00000  Uiso   1.00
N188   N     0.58411   0.92108   0.03047   0.00000  Uiso   1.00
C189   C     0.56459   0.93389   0.98745   0.00000  Uiso   1.00
N190   N     0.54768   0.91547   0.93106   0.00000  Uiso   1.00
N191   N     0.54953   0.88472   0.91910   0.00000  Uiso   1.00
C192   C     0.56690   0.83514   0.95495   0.00000  Uiso   1.00
N193   N     0.53792   0.80823   0.92001   0.00000  Uiso   1.00
N194   N     0.53388   0.77348   0.91952   0.00000  Uiso   1.00
C195   C     0.55886   0.76452   0.95350   0.00000  Uiso   1.00
N196   N     0.58818   0.79165  -0.01256   0.00000  Uiso   1.00
N197   N     0.59197   0.82623  -0.01142   0.00000  Uiso   1.00
C198   C     0.55311   0.72552  -0.04279   0.00000  Uiso   1.00
N199   N     0.58155   0.71856  -0.02172   0.00000  Uiso   1.00
N200   N     0.57591   0.68295  -0.01498   0.00000  Uiso   1.00
C201   C     0.54147   0.65290  -0.02810   0.00000  Uiso   1.00
N202   N     0.51299   0.65982   0.95078   0.00000  Uiso   1.00
N203   N     0.51875   0.69552   0.94334   0.00000  Uiso   1.00
C204   C     0.50496   0.35685   0.00937   0.00000  Uiso   1.00
N205   N     0.53717   0.38609   0.03299   0.00000  Uiso   1.00
N206   N     0.54064   0.42052   0.03426   0.00000  Uiso   1.00
C207   C     0.51181   0.42677   0.01283   0.00000  Uiso   1.00
N208   N     0.47938   0.39738   0.99022   0.00000  Uiso   1.00
N209   N     0.47607   0.36307   0.98820   0.00000  Uiso   1.00
C210   C     0.50209   0.31965   1.00432   0.00000  Uiso   1.00
N211   N     0.47552   0.29432   0.96348   0.00000  Uiso   1.00
N212   N     0.47379   0.26107   0.95728   0.00000  Uiso   1.00
C213   C     0.49835   0.25184   0.99220   0.00000  Uiso   1.00
N214   N     0.52473   0.27705   0.03338   0.00000  Uiso   1.00
N215   N     0.52674   0.31048   0.03894   0.00000  Uiso   1.00
C216   C     0.49611   0.21498   0.98655   0.00000  Uiso   1.00
N217   N     0.50990   0.19954   1.03761   0.00000  Uiso   1.00
N218   N     0.50749   0.16584   1.03324   0.00000  Uiso   1.00
C219   C     0.49175   0.14664   0.97724   0.00000  Uiso   1.00
N220   N     0.47826   0.16221   0.92575   0.00000  Uiso   1.00
N221   N     0.48017   0.19570   0.93059   0.00000  Uiso   1.00
loop_
_geom_bond_atom_site_label_1
_geom_bond_atom_site_label_2
_geom_bond_distance
_geom_bond_site_symmetry_2
_ccdc_geom_bond_type
C0     O8      1.217   .     D
C0     O9      1.391   .     S
C0     C165    1.467   .     S
Er1    O11     2.176   .     S
Er1    O13     2.173   .     S
Er1    O17     2.203   .     S
Er1    O15     2.164   1_554 S
Er1    O18     2.180   1_554 S
Er1    O19     2.207   1_554 S
Er2    O10     2.162   .     S
Er2    O12     2.168   .     S
Er2    O16     2.165   .     S
Er2    O4      2.180   1_554 S
Er2    O9      2.224   1_554 S
C3     O16     1.270   .     A
C3     O17     1.281   .     A
C3     C201    1.468   .     S
O4     C14     1.275   .     A
O4     Er2     2.180   1_556 S
C5     O12     1.270   .     A
C5     O13     1.271   .     A
C5     C63     1.466   .     S
C6     O10     1.265   .     A
C6     O11     1.268   .     A
C6     C207    1.465   .     S
C7     O18     1.258   .     A
C7     O19     1.272   .     A
C7     C117    1.465   .     S
O9     Er2     2.224   1_556 S
C14    O15     1.272   .     A
C14    C75     1.467   .     S
O15    Er1     2.164   1_556 S
O18    Er1     2.180   1_556 S
O19    Er1     2.207   1_556 S
C20    O28     1.217   .     D
C20    O29     1.392   .     S
C20    C135    1.467   .     S
Er21   O31     2.169   .     S
Er21   O33     2.174   .     S
Er21   O37     2.199   .     S
Er21   O35     2.171   1_554 S
Er21   O38     2.194   1_554 S
Er21   O39     2.196   1_554 S
Er22   O30     2.176   .     S
Er22   O24     2.174   1_654 S
Er22   O29     2.226   1_554 S
Er22   O32     2.168   1_655 S
Er22   O36     2.176   1_655 S
C23    O36     1.270   .     A
C23    O37     1.280   .     A
C23    C129    1.468   .     S
O24    C34     1.274   .     A
O24    Er22    2.174   1_456 S
C25    O32     1.271   .     A
C25    O33     1.272   .     A
C25    C93     1.467   .     S
C26    O30     1.268   .     A
C26    C153    1.467   .     S
C26    O31     1.267   1_655 A
C27    O38     1.262   .     A
C27    O39     1.271   .     A
C27    C183    1.464   .     S
O29    Er22    2.226   1_556 S
O31    C26     1.267   1_455 A
O32    Er22    2.168   1_455 S
C34    O35     1.274   .     A
C34    C81     1.467   .     S
O35    Er21    2.171   1_556 S
O36    Er22    2.176   1_455 S
O38    Er21    2.194   1_556 S
O39    Er21    2.196   1_556 S
C40    O48     1.216   .     D
C40    O49     1.391   .     S
C40    C219    1.465   .     S
Er41   O57     2.168   .     S
Er41   O51     2.169   1_565 S
Er41   O53     2.175   1_565 S
Er41   O55     2.199   1_564 S
Er41   O58     2.207   1_554 S
Er41   O59     2.182   1_554 S
Er42   O50     2.172   .     S
Er42   O52     2.164   .     S
Er42   O56     2.170   .     S
Er42   O44     2.168   1_554 S
Er42   O49     2.227   1_554 S
C43    O57     1.272   .     A
C43    C171    1.465   .     S
C43    O56     1.272   1_565 A
O44    C54     1.269   .     A
O44    Er42    2.168   1_556 S
C45    O52     1.265   .     A
C45    O53     1.267   .     A
C45    C99     1.466   .     S
C46    O50     1.274   .     A
C46    O51     1.273   .     A
C46    C147    1.465   .     S
C47    O58     1.272   .     A
C47    O59     1.258   .     A
C47    C189    1.464   .     S
O49    Er42    2.227   1_556 S
O51    Er41    2.169   1_545 S
O53    Er41    2.175   1_545 S
C54    O55     1.280   .     A
C54    C111    1.467   .     S
O55    Er41    2.199   1_546 S
O56    C43     1.272   1_545 A
O58    Er41    2.207   1_556 S
O59    Er41    2.182   1_556 S
C60    N61     1.357   .     A
C60    N65     1.358   .     A
C60    C66     1.469   .     S
N61    N62     1.332   .     A
N62    C63     1.357   .     A
C63    N64     1.357   .     A
N64    N65     1.333   .     A
C66    N67     1.358   .     A
C66    N71     1.358   .     A
N67    N68     1.333   .     A
N68    C69     1.359   .     A
C69    N70     1.357   .     A
C69    C72     1.470   .     S
N70    N71     1.332   .     A
C72    N73     1.359   .     A
C72    N77     1.357   .     A
N73    N74     1.333   .     A
N74    C75     1.357   .     A
C75    N76     1.358   .     A
N76    N77     1.332   .     A
C78    N79     1.358   .     A
C78    N83     1.358   .     A
C78    C84     1.469   .     S
N79    N80     1.333   .     A
N80    C81     1.358   .     A
C81    N82     1.358   .     A
N82    N83     1.332   .     A
C84    N85     1.358   .     A
C84    N89     1.358   .     A
N85    N86     1.332   .     A
N86    C87     1.357   .     A
C87    N88     1.358   .     A
C87    C90     1.469   .     S
N88    N89     1.333   .     A
C90    N91     1.358   .     A
C90    N95     1.358   .     A
N91    N92     1.332   .     A
N92    C93     1.358   .     A
C93    N94     1.357   .     A
N94    N95     1.332   .     A
C96    N101    1.358   .     A
C96    C102    1.469   .     S
C96    N97     1.358   1_545 A
N97    N98     1.332   .     A
N97    C96     1.358   1_565 A
N98    C99     1.357   1_565 A
C99    N100    1.358   .     A
C99    N98     1.357   1_545 A
N100   N101    1.332   .     A
C102   N103    1.358   .     A
C102   N107    1.358   1_545 A
N103   N104    1.333   .     A
N104   C105    1.358   .     A
C105   C108    1.470   .     S
C105   N106    1.358   1_545 A
N106   N107    1.332   .     A
N106   C105    1.358   1_565 A
N107   C102    1.358   1_565 A
C108   N113    1.358   .     A
C108   N109    1.358   1_545 A
N109   N110    1.332   .     A
N109   C108    1.358   1_565 A
N110   C111    1.357   1_565 A
C111   N112    1.358   .     A
C111   N110    1.357   1_545 A
N112   N113    1.333   .     A
C114   N115    1.359   .     A
C114   C120    1.470   .     S
C114   N119    1.356   1_556 A
N115   N116    1.335   .     A
N116   C117    1.357   .     A
C117   N118    1.357   1_556 A
N118   N119    1.331   .     A
N118   C117    1.357   1_554 A
N119   C114    1.356   1_554 A
C120   N125    1.357   .     A
C120   N121    1.358   1_556 A
N121   N122    1.333   .     A
N121   C120    1.358   1_554 A
N122   C123    1.357   1_554 A
C123   N124    1.359   .     A
C123   N122    1.357   1_556 A
C123   C126    1.469   1_556 S
N124   N125    1.333   .     A
C126   N131    1.360   .     A
C126   C123    1.469   1_554 S
C126   N127    1.355   1_554 A
N127   N128    1.330   .     A
N127   C126    1.355   1_556 A
N128   C129    1.357   1_556 A
C129   N130    1.358   .     A
C129   N128    1.357   1_554 A
N130   N131    1.335   .     A
C132   N133    1.359   .     A
C132   N137    1.356   .     A
C132   C138    1.467   .     S
N133   N134    1.335   .     A
N134   C135    1.359   .     A
C135   N136    1.356   .     A
N136   N137    1.331   .     A
C138   N143    1.359   .     A
C138   N139    1.357   1_556 A
N139   N140    1.331   .     A
N139   C138    1.357   1_554 A
N140   C141    1.357   1_554 A
C141   N142    1.359   .     A
C141   N140    1.357   1_556 A
C141   C144    1.467   1_556 S
N142   N143    1.334   .     A
C144   N149    1.357   .     A
C144   C141    1.467   1_554 S
C144   N145    1.358   1_554 A
N145   N146    1.333   .     A
N145   C144    1.358   1_556 A
N146   C147    1.358   1_556 A
C147   N148    1.356   .     A
C147   N146    1.358   1_554 A
N148   N149    1.331   .     A
C150   C156    1.468   .     S
C150   N151    1.359   1_556 A
C150   N155    1.357   1_556 A
N151   N152    1.334   .     A
N151   C150    1.359   1_554 A
N152   C153    1.358   .     A
C153   N154    1.357   .     A
N154   N155    1.331   .     A
N155   C150    1.357   1_554 A
C156   N157    1.358   .     A
C156   N161    1.357   .     A
N157   N158    1.332   .     A
N158   C159    1.357   .     A
C159   N160    1.358   .     A
C159   C162    1.469   .     S
N160   N161    1.333   .     A
C162   N163    1.357   .     A
C162   N167    1.359   .     A
N163   N164    1.331   .     A
N164   C165    1.357   .     A
C165   N166    1.358   .     A
N166   N167    1.334   .     A
C168   N173    1.356   .     A
C168   C174    1.467   .     S
C168   N169    1.358   1_554 A
N169   N170    1.334   .     A
N169   C168    1.358   1_556 A
N170   C171    1.358   1_556 A
C171   N172    1.356   .     A
C171   N170    1.358   1_554 A
N172   N173    1.331   .     A
C174   N175    1.356   .     A
C174   N179    1.358   1_554 A
N175   N176    1.331   .     A
N176   C177    1.356   1_554 A
C177   N178    1.358   .     A
C177   C180    1.468   .     S
C177   N176    1.356   1_556 A
N178   N179    1.334   .     A
N179   C174    1.358   1_556 A
C180   N181    1.358   .     A
C180   N185    1.357   1_556 A
N181   N182    1.333   .     A
N182   C183    1.358   .     A
C183   N184    1.356   1_556 A
N184   N185    1.332   .     A
N184   C183    1.356   1_554 A
N185   C180    1.357   1_554 A
C186   N191    1.359   .     A
C186   C192    1.468   .     S
C186   N187    1.357   1_556 A
N187   N188    1.331   .     A
N187   C186    1.357   1_554 A
N188   C189    1.357   1_554 A
C189   N190    1.358   .     A
C189   N188    1.357   1_556 A
N190   N191    1.334   .     A
C192   N193    1.358   .     A
C192   N197    1.357   1_556 A
N193   N194    1.333   .     A
N194   C195    1.358   .     A
C195   N196    1.357   1_556 A
C195   C198    1.469   1_556 S
N196   N197    1.332   .     A
N196   C195    1.357   1_554 A
N197   C192    1.357   1_554 A
C198   N199    1.357   .     A
C198   C195    1.469   1_554 S
C198   N203    1.358   1_554 A
N199   N200    1.332   .     A
N200   C201    1.357   .     A
C201   N202    1.358   1_554 A
N202   N203    1.333   .     A
N202   C201    1.358   1_556 A
N203   C198    1.358   1_556 A
C204   N205    1.358   .     A
C204   N209    1.357   1_554 A
C204   C210    1.467   1_554 S
N205   N206    1.332   .     A
N206   C207    1.357   .     A
C207   N208    1.358   1_554 A
N208   N209    1.332   .     A
N208   C207    1.358   1_556 A
N209   C204    1.357   1_556 A
C210   N211    1.358   .     A
C210   C204    1.467   1_556 S
C210   N215    1.357   1_556 A
N211   N212    1.333   .     A
N212   C213    1.357   .     A
C213   C216    1.467   .     S
C213   N214    1.357   1_556 A
N214   N215    1.332   .     A
N214   C213    1.357   1_554 A
N215   C210    1.357   1_554 A
C216   N217    1.356   .     A
C216   N221    1.359   .     A
N217   N218    1.331   .     A
N218   C219    1.356   .     A
C219   N220    1.358   .     A
N220   N221    1.334   .     A
