data_kag+N505+E1
_audit_creation_date              2025-01-21
_audit_creation_method            'Materials Studio'
_symmetry_space_group_name_H-M    'P1'
_symmetry_Int_Tables_number       1
_symmetry_cell_setting            triclinic
loop_
_symmetry_equiv_pos_as_xyz
  x,y,z
_cell_length_a                    40.4986
_cell_length_b                    35.7076
_cell_length_c                    21.7721
_cell_angle_alpha                 103.6834
_cell_angle_beta                  82.9212
_cell_angle_gamma                 106.7692
loop_
_atom_site_label
_atom_site_type_symbol
_atom_site_fract_x
_atom_site_fract_y
_atom_site_fract_z
_atom_site_U_iso_or_equiv
_atom_site_adp_type
_atom_site_occupancy
Yb0    Yb    0.55050   0.50912   0.92835   0.00000  Uiso   1.00
Yb1    Yb    0.45305   0.49866   0.08370   0.00000  Uiso   1.00
C2     C     0.39131   0.48892   0.07181   0.00000  Uiso   1.00
O3     O     0.51953   0.48555   0.85128   0.00000  Uiso   1.00
O4     O     0.55541   0.54596   0.86338   0.00000  Uiso   1.00
O5     O     0.50928   0.53060  -0.01757   0.00000  Uiso   1.00
O6     O     0.46439   0.54726   1.03277   0.00000  Uiso   1.00
O7     O     0.59630   0.49493   0.88961   0.00000  Uiso   1.00
O8     O     0.59443   0.53670  -0.01853   0.00000  Uiso   1.00
O9     O     0.48396   0.52551   0.16053   0.00000  Uiso   1.00
O10    O     0.44889   0.46489   0.15300   0.00000  Uiso   1.00
C11    C     0.53285   0.51767   0.82966   0.00000  Uiso   1.00
O12    O     0.53810   0.45864  -0.02444   0.00000  Uiso   1.00
O13    O     0.49431   0.47587   1.03112   0.00000  Uiso   1.00
O14    O     0.40692   0.51273   0.12030   0.00000  Uiso   1.00
C15    C     0.49026   0.55423  -0.00654   0.00000  Uiso   1.00
O16    O     0.40916   0.46847   1.03138   0.00000  Uiso   1.00
C17    C     0.61200   0.51687   0.93925   0.00000  Uiso   1.00
C18    C     0.47098   0.49462   0.18535   0.00000  Uiso   1.00
C19    C     0.51244   0.45119   0.01535   0.00000  Uiso   1.00
Yb20   Yb    0.03259   0.54854   0.94412   0.00000  Uiso   1.00
Yb21   Yb    0.97013   0.44876   0.04672   0.00000  Uiso   1.00
C22    C     0.91344   0.40118   0.02035   0.00000  Uiso   1.00
O23    O     0.01905   0.50554   0.85969   0.00000  Uiso   1.00
O24    O     1.03013   0.56991   0.86351   0.00000  Uiso   1.00
O25    O     0.97849   0.54426   0.96968   0.00000  Uiso   1.00
O26    O     0.97114   0.48196   0.97506   0.00000  Uiso   1.00
O27    O     0.08651   0.56393   0.92950   0.00000  Uiso   1.00
O28    O     0.06067   0.60227   0.00113   0.00000  Uiso   1.00
O29    O     0.98393   0.49214   0.13069   0.00000  Uiso   1.00
O30    O    -0.02765   0.42780   0.12777   0.00000  Uiso   1.00
C31    C     1.02169   0.53388   0.83031   0.00000  Uiso   1.00
O32    O     0.03150   0.51473   0.01523   0.00000  Uiso   1.00
O33    O     0.02412   0.45246   0.02100   0.00000  Uiso   1.00
O34    O     0.91638   0.43425   0.06169   0.00000  Uiso   1.00
C35    C     0.95864   0.51157   0.98150   0.00000  Uiso   1.00
O36    O     0.94168   0.39506   0.99045   0.00000  Uiso   1.00
C37    C     0.08910   0.59684   0.97116   0.00000  Uiso   1.00
C38    C    -0.01906   0.46393   0.16058   0.00000  Uiso   1.00
C39    C     0.04403   0.48514   0.00918   0.00000  Uiso   1.00
Yb40   Yb    0.45488   0.96912   0.06290   0.00000  Uiso   1.00
Yb41   Yb    0.54575   0.03362   0.93775   0.00000  Uiso   1.00
C42    C     0.59339   0.09316   0.97424   0.00000  Uiso   1.00
O43    O     0.49209   0.98016   0.12914   0.00000  Uiso   1.00
O44    O     0.43727  -0.02508   0.15820   0.00000  Uiso   1.00
O45    O     0.46404   0.03247   0.06928   0.00000  Uiso   1.00
O46    O     0.51664   0.03597   0.02802   0.00000  Uiso   1.00
O47    O     0.43401   0.90701   0.05162   0.00000  Uiso   1.00
O48    O     0.40758   0.94406   1.01945   0.00000  Uiso   1.00
O49    O     0.50888   0.02323   0.87120   0.00000  Uiso   1.00
O50    O     0.56376   1.02859   0.84259   0.00000  Uiso   1.00
C51    C     0.46820  -0.01963   0.17436   0.00000  Uiso   1.00
O52    O     0.48370   0.96588   0.97211   0.00000  Uiso   1.00
O53    O     0.53634   0.97016   0.93023   0.00000  Uiso   1.00
O54    O     0.56664   0.09582   0.95055   0.00000  Uiso   1.00
C55    C     0.49207   0.05234   0.04576   0.00000  Uiso   1.00
O56    O     0.59285   0.05819  -0.01817   0.00000  Uiso   1.00
C57    C     0.40718   0.90929   0.02771   0.00000  Uiso   1.00
C58    C     0.53290   1.02325   0.82618   0.00000  Uiso   1.00
C59    C     0.50854   0.94990   0.95396   0.00000  Uiso   1.00
C60    C     0.49232   0.50128   0.37650   0.00000  Uiso   1.00
C61    C     0.51325   0.52875   0.34160   0.00000  Uiso   1.00
C62    C     0.50712   0.52553   0.27859   0.00000  Uiso   1.00
C63    C     0.47998   0.49471   0.24906   0.00000  Uiso   1.00
C64    C     0.45984   0.46633   0.28297   0.00000  Uiso   1.00
C65    C     0.46585   0.46968   0.34621   0.00000  Uiso   1.00
C66    C     0.49766   0.50599   0.44454   0.00000  Uiso   1.00
C67    C     0.49415   0.47227   0.46987   0.00000  Uiso   1.00
C68    C     0.49847   0.47649   0.53398   0.00000  Uiso   1.00
C69    C     0.50650   0.51455   0.57439   0.00000  Uiso   1.00
C70    C     0.51045   0.54839   0.54903   0.00000  Uiso   1.00
C71    C     0.50594   0.54415   0.48483   0.00000  Uiso   1.00
C72    C     0.51105   0.51855   0.64249   0.00000  Uiso   1.00
C73    C     0.53809   0.54877   0.67370   0.00000  Uiso   1.00
C74    C     0.54424   0.54983   0.73604   0.00000  Uiso   1.00
C75    C     0.52357   0.52061   0.76797   0.00000  Uiso   1.00
C76    C     0.49563   0.49157   0.73784   0.00000  Uiso   1.00
C77    C     0.48935   0.49066   0.67589   0.00000  Uiso   1.00
H78    H     0.53431   0.55287   0.36308   0.00000  Uiso   1.00
H79    H     0.52324   0.54771   0.25340   0.00000  Uiso   1.00
H80    H     0.43861   0.44249   0.26147   0.00000  Uiso   1.00
H81    H     0.44902   0.44822   0.37190   0.00000  Uiso   1.00
H82    H     0.48858   0.44258   0.43987   0.00000  Uiso   1.00
H83    H     0.49608   0.44991   0.55176   0.00000  Uiso   1.00
H84    H     0.51648   0.57806   0.57904   0.00000  Uiso   1.00
H85    H     0.50844   0.57074   0.46698   0.00000  Uiso   1.00
H86    H     0.55539   0.57052   0.64910   0.00000  Uiso   1.00
H87    H     0.56612   0.57229   0.75814   0.00000  Uiso   1.00
H88    H     0.47913   0.46878   0.76151   0.00000  Uiso   1.00
H89    H     0.46785   0.46760   0.65368   0.00000  Uiso   1.00
C90    C     1.00750   0.51265   0.63096   0.00000  Uiso   1.00
C91    C     1.01239   0.55127   0.66922   0.00000  Uiso   1.00
C92    C     1.01653   0.55789   0.73401   0.00000  Uiso   1.00
C93    C     1.01582   0.52606   0.76216   0.00000  Uiso   1.00
C94    C     1.01026   0.48731   0.72437   0.00000  Uiso   1.00
C95    C     1.00612   0.48065   0.65942   0.00000  Uiso   1.00
C96    C     1.00422   0.50595   0.56160   0.00000  Uiso   1.00
C97    C     0.98063   0.47174   0.52979   0.00000  Uiso   1.00
C98    C     0.97768   0.46538   0.46460   0.00000  Uiso   1.00
C99    C     0.99824   0.49307   0.42955   0.00000  Uiso   1.00
C100   C     1.02181   0.52732   0.46135   0.00000  Uiso   1.00
C101   C     1.02477   0.53368   0.52657   0.00000  Uiso   1.00
C102   C     0.99498   0.48615   0.36017   0.00000  Uiso   1.00
C103   C     0.99624   0.51794   0.33130   0.00000  Uiso   1.00
C104   C     0.99204   0.51095   0.26629   0.00000  Uiso   1.00
C105   C    -0.01340   0.47207   0.22885   0.00000  Uiso   1.00
C106   C    -0.01416   0.44046   0.25753   0.00000  Uiso   1.00
C107   C    -0.00995   0.44741   0.32230   0.00000  Uiso   1.00
H108   H     1.01282   0.57641   0.64914   0.00000  Uiso   1.00
H109   H     1.02033   0.58806   0.76207   0.00000  Uiso   1.00
H110   H     0.00957   0.46224   0.74483   0.00000  Uiso   1.00
H111   H     0.00262   0.45057   0.63126   0.00000  Uiso   1.00
H112   H    -0.03593   0.45010   0.55546   0.00000  Uiso   1.00
H113   H    -0.04110   0.43897   0.44178   0.00000  Uiso   1.00
H114   H     1.03843   0.54888   0.43560   0.00000  Uiso   1.00
H115   H     1.04364   0.55999   0.54939   0.00000  Uiso   1.00
H116   H     0.99963   0.54807   0.35927   0.00000  Uiso   1.00
H117   H     0.99249   0.53585   0.24557   0.00000  Uiso   1.00
H118   H    -0.01817   0.41020   0.22988   0.00000  Uiso   1.00
H119   H    -0.01042   0.42237   0.34271   0.00000  Uiso   1.00
C120   C     0.48824  -0.00621   0.36882   0.00000  Uiso   1.00
C121   C     0.45484   0.98948   0.35151   0.00000  Uiso   1.00
C122   C     0.44855   0.98566   0.28846   0.00000  Uiso   1.00
C123   C     0.47547  -0.01408   0.24117   0.00000  Uiso   1.00
C124   C     0.50896  -0.00949   0.25827   0.00000  Uiso   1.00
C125   C     0.51528  -0.00564   0.32151   0.00000  Uiso   1.00
C126   C     0.49467  -0.00223   0.43604   0.00000  Uiso   1.00
C127   C     0.52433   0.02533   0.46294   0.00000  Uiso   1.00
C128   C     0.53001   0.02954   0.52653   0.00000  Uiso   1.00
C129   C     0.50627   0.00614   0.56458   0.00000  Uiso   1.00
C130   C     0.47650   0.97875   0.53779   0.00000  Uiso   1.00
C131   C     0.47082   0.97453   0.47420   0.00000  Uiso   1.00
C132   C     0.51284   0.00997   0.63170   0.00000  Uiso   1.00
C133   C     0.48584   1.00924   0.67904   0.00000  Uiso   1.00
C134   C     0.49223   1.01316   0.74225   0.00000  Uiso   1.00
C135   C     0.52575   1.01791   0.75932   0.00000  Uiso   1.00
C136   C     0.55268   0.01828   0.71199   0.00000  Uiso   1.00
C137   C     0.54630   0.01438   0.64890   0.00000  Uiso   1.00
H138   H     0.43358   0.98949   0.38689   0.00000  Uiso   1.00
H139   H     0.42249   0.98231   0.27669   0.00000  Uiso   1.00
H140   H     0.53018  -0.00928   0.22270   0.00000  Uiso   1.00
H141   H     0.54122  -0.00285   0.33326   0.00000  Uiso   1.00
H142   H     0.54287   0.04412   0.43507   0.00000  Uiso   1.00
H143   H     0.55276   0.05159   0.54625   0.00000  Uiso   1.00
H144   H     0.45785   0.96010   0.56574   0.00000  Uiso   1.00
H145   H     0.44796   0.95263   0.45461   0.00000  Uiso   1.00
H146   H     0.45987   1.00637   0.66738   0.00000  Uiso   1.00
H147   H     0.47102   1.01286   0.77781   0.00000  Uiso   1.00
H148   H     0.57877   0.02174   0.72370   0.00000  Uiso   1.00
H149   H     0.56754   0.01446   0.61343   0.00000  Uiso   1.00
C150   C     0.28843   0.48778   0.03851   0.00000  Uiso   1.00
C151   C     0.30326   0.45750   1.00346   0.00000  Uiso   1.00
C152   C     0.33654   0.45730   1.01470   0.00000  Uiso   1.00
C153   C     0.35540   0.48706   0.06174   0.00000  Uiso   1.00
C154   C     0.34051   0.51703   0.09704   0.00000  Uiso   1.00
C155   C     0.30761   0.51760   0.08519   0.00000  Uiso   1.00
C156   C     0.25326   0.48873   0.02661   0.00000  Uiso   1.00
C157   C     0.23140   0.50218   0.07712   0.00000  Uiso   1.00
C158   C     0.19887   0.50439   0.06625   0.00000  Uiso   1.00
C159   C     0.18709   0.49257   0.00484   0.00000  Uiso   1.00
C160   C     0.20854   0.47864   0.95427   0.00000  Uiso   1.00
C161   C     0.24143   0.47698   0.96498   0.00000  Uiso   1.00
C162   C     0.15171   0.49306  -0.00487   0.00000  Uiso   1.00
C163   C     0.12864   0.45863   0.96260   0.00000  Uiso   1.00
C164   C     0.09356   0.45667   0.96355   0.00000  Uiso   1.00
C165   C     0.08128   0.48943  -0.00415   0.00000  Uiso   1.00
C166   C     0.10470   0.52450   0.02543   0.00000  Uiso   1.00
C167   C     0.13960   0.52638   0.02491   0.00000  Uiso   1.00
H168   H     0.28915   0.43383   0.96755   0.00000  Uiso   1.00
H169   H     0.34751   0.43392   0.98657   0.00000  Uiso   1.00
H170   H     0.35468   0.54078   0.13280   0.00000  Uiso   1.00
H171   H     0.29755   0.54202   0.11186   0.00000  Uiso   1.00
H172   H     0.23919   0.51056   0.12536   0.00000  Uiso   1.00
H173   H     0.18255   0.51456   0.10623   0.00000  Uiso   1.00
H174   H     0.20001   0.46958   0.90647   0.00000  Uiso   1.00
H175   H     0.25772   0.46704   0.92485   0.00000  Uiso   1.00
H176   H     0.13732   0.43241   0.93993   0.00000  Uiso   1.00
H177   H     0.07579   0.42901   0.94157   0.00000  Uiso   1.00
H178   H     0.09563   0.54957   0.05267   0.00000  Uiso   1.00
H179   H     0.15686   0.55326   0.05033   0.00000  Uiso   1.00
C180   C     0.81612   0.31170   0.00162   0.00000  Uiso   1.00
C181   C     0.82007   0.34656   0.04923   0.00000  Uiso   1.00
C182   C     0.85133   0.37629   0.05333   0.00000  Uiso   1.00
C183   C     0.87951   0.37150   0.01054   0.00000  Uiso   1.00
C184   C     0.87535   0.33704   0.96184   0.00000  Uiso   1.00
C185   C     0.84375   0.30751   0.95707   0.00000  Uiso   1.00
C186   C     0.78343   0.27952  -0.00024   0.00000  Uiso   1.00
C187   C     0.76648   0.26273   0.94324   0.00000  Uiso   1.00
C188   C     0.73499   0.23330   0.94224   0.00000  Uiso   1.00
C189   C     0.72018   0.21970   0.99756   0.00000  Uiso   1.00
C190   C     0.73749   0.23597   0.05384   0.00000  Uiso   1.00
C191   C     0.76869   0.26586   0.05505   0.00000  Uiso   1.00
C192   C     0.68669   0.18873   0.99644   0.00000  Uiso   1.00
C193   C     0.68240   0.15554   0.02364   0.00000  Uiso   1.00
C194   C     0.65140   0.12516   0.01899   0.00000  Uiso   1.00
C195   C     0.62403   0.12768   0.98770   0.00000  Uiso   1.00
C196   C     0.62777   0.16182   0.96323   0.00000  Uiso   1.00
C197   C     0.65891   0.19188   0.96709   0.00000  Uiso   1.00
H198   H     0.79893   0.35070   0.08345   0.00000  Uiso   1.00
H199   H     0.85371   0.40253   0.09133   0.00000  Uiso   1.00
H200   H     0.89661   0.33263   0.92814   0.00000  Uiso   1.00
H201   H     0.84118   0.28085   0.91982   0.00000  Uiso   1.00
H202   H     0.77731   0.27295   0.90018   0.00000  Uiso   1.00
H203   H     0.72229   0.22095   0.89811   0.00000  Uiso   1.00
H204   H     0.72656   0.22605   0.09710   0.00000  Uiso   1.00
H205   H     0.78144   0.27819   0.09916   0.00000  Uiso   1.00
H206   H     0.70345   0.15242   0.04648   0.00000  Uiso   1.00
H207   H     0.64918   0.09921   0.03839   0.00000  Uiso   1.00
H208   H     0.60710   0.16465   0.93899   0.00000  Uiso   1.00
H209   H     0.66150   0.21743   0.94645   0.00000  Uiso   1.00
C210   C     0.85128   0.50572   1.00262   0.00000  Uiso   1.00
C211   C     0.87505   0.53920   0.03557   0.00000  Uiso   1.00
C212   C     0.91004   0.54026   0.03221   0.00000  Uiso   1.00
C213   C     0.92155   0.50764   0.99674   0.00000  Uiso   1.00
C214   C     0.89741   0.47337   0.96674   0.00000  Uiso   1.00
C215   C     0.86256   0.47235   0.96988   0.00000  Uiso   1.00
C216   C     0.81592   0.50730   0.99560   0.00000  Uiso   1.00
C217   C     0.80396   0.49884   0.93475   0.00000  Uiso   1.00
C218   C     0.77115   0.50134   0.92654   0.00000  Uiso   1.00
C219   C     0.74921   0.51182   0.97908   0.00000  Uiso   1.00
C220   C     0.76122   0.52020   0.04021   0.00000  Uiso   1.00
C221   C     0.79447   0.51840   0.04835   0.00000  Uiso   1.00
C222   C     0.71399   0.51359   0.96942   0.00000  Uiso   1.00
C223   C     0.69907   0.54250   0.00886   0.00000  Uiso   1.00
C224   C     0.66612   0.54418  -0.00139   0.00000  Uiso   1.00
C225   C     0.64763   0.51726   0.94837   0.00000  Uiso   1.00
C226   C     0.66255   0.48853   0.90889   0.00000  Uiso   1.00
C227   C     0.69513   0.48643   0.91966   0.00000  Uiso   1.00
H228   H     0.86694   0.56542   0.06055   0.00000  Uiso   1.00
H229   H     0.92834   0.56718   0.05494   0.00000  Uiso   1.00
H230   H     0.90579   0.44832   0.93751   0.00000  Uiso   1.00
H231   H     0.84460   0.44621   0.94426   0.00000  Uiso   1.00
H232   H     0.82034   0.49100   0.89327   0.00000  Uiso   1.00
H233   H     0.76323   0.49557   0.87874   0.00000  Uiso   1.00
H234   H     0.74482   0.52763   0.08177   0.00000  Uiso   1.00
H235   H     0.80325   0.52501   0.09572   0.00000  Uiso   1.00
H236   H     0.71296   0.56405   0.04729   0.00000  Uiso   1.00
H237   H     0.65507   0.56640   0.03010   0.00000  Uiso   1.00
H238   H     0.64864   0.46686   0.87053   0.00000  Uiso   1.00
H239   H     0.70527   0.46300   0.88946   0.00000  Uiso   1.00
C240   C     0.31471   0.81241   0.00358   0.00000  Uiso   1.00
C241   C     0.31882   0.84557   0.97636   0.00000  Uiso   1.00
C242   C     0.34951   0.87645   0.98186   0.00000  Uiso   1.00
C243   C     0.37675   0.87450   0.01414   0.00000  Uiso   1.00
C244   C     0.37320   0.84049   0.03878   0.00000  Uiso   1.00
C245   C     0.34234   0.80999   0.03420   0.00000  Uiso   1.00
C246   C     0.28154   0.78071   0.00120   0.00000  Uiso   1.00
C247   C     0.26651   0.76641   0.05588   0.00000  Uiso   1.00
C248   C     0.23533   0.73633   0.05370   0.00000  Uiso   1.00
C249   C     0.21888   0.71960   0.99657   0.00000  Uiso   1.00
C250   C     0.23391   0.73392   0.94194   0.00000  Uiso   1.00
C251   C     0.26478   0.76441   0.94436   0.00000  Uiso   1.00
C252   C     0.18625   0.68710   0.99337   0.00000  Uiso   1.00
C253   C     0.18253   0.65285   0.94451   0.00000  Uiso   1.00
C254   C     0.15128   0.62303   0.93893   0.00000  Uiso   1.00
C255   C     0.12285   0.62703   0.98157   0.00000  Uiso   1.00
C256   C     0.12673   0.66095   0.03129   0.00000  Uiso   1.00
C257   C     0.15833   0.69050   0.03760   0.00000  Uiso   1.00
H258   H     0.29788   0.84824   0.95267   0.00000  Uiso   1.00
H259   H     0.35157   0.90231   0.96230   0.00000  Uiso   1.00
H260   H     0.39378   0.83813   0.06378   0.00000  Uiso   1.00
H261   H     0.33992   0.78457   0.05504   0.00000  Uiso   1.00
H262   H     0.27881   0.77871   0.10041   0.00000  Uiso   1.00
H263   H     0.22436   0.72568   0.09637   0.00000  Uiso   1.00
H264   H     0.22157   0.72170   0.89743   0.00000  Uiso   1.00
H265   H     0.27589   0.77474   0.90151   0.00000  Uiso   1.00
H266   H     0.20387   0.64921   0.91049   0.00000  Uiso   1.00
H267   H     0.14908   0.59743   0.89983   0.00000  Uiso   1.00
H268   H     0.10528   0.66484   0.06480   0.00000  Uiso   1.00
H269   H     0.16059   0.71673   0.07562   0.00000  Uiso   1.00
C270   C     0.50649   0.82940   0.95416   0.00000  Uiso   1.00
C271   C     0.53593   0.86112  -0.02837   0.00000  Uiso   1.00
C272   C     0.53589   0.90054  -0.02559   0.00000  Uiso   1.00
C273   C     0.50644   0.90916   0.96008   0.00000  Uiso   1.00
C274   C     0.47686   0.87779   0.94333   0.00000  Uiso   1.00
C275   C     0.47671   0.83828   0.94113   0.00000  Uiso   1.00
C276   C     0.50729   0.78729   0.94804   0.00000  Uiso   1.00
C277   C     0.49025   0.75668   0.89965   0.00000  Uiso   1.00
C278   C     0.49048   0.71699   0.89479   0.00000  Uiso   1.00
C279   C     0.50804   0.70713   0.93784   0.00000  Uiso   1.00
C280   C     0.52582   0.73780  -0.01485   0.00000  Uiso   1.00
C281   C     0.52533   0.77738  -0.00963   0.00000  Uiso   1.00
C282   C     0.50517   0.66478   0.93788   0.00000  Uiso   1.00
C283   C     0.53393   0.65306  -0.05138   0.00000  Uiso   1.00
C284   C     0.52970   0.61512  -0.03911   0.00000  Uiso   1.00
C285   C     0.49659   0.58877   0.96365   0.00000  Uiso   1.00
C286   C     0.46826   0.59948   0.94886   0.00000  Uiso   1.00
C287   C     0.47259   0.63690   0.93511   0.00000  Uiso   1.00
H288   H     0.55945   0.85543  -0.01893   0.00000  Uiso   1.00
H289   H     0.55925   0.92429  -0.01382   0.00000  Uiso   1.00
H290   H     0.45431   0.88367   0.92978   0.00000  Uiso   1.00
H291   H     0.45345   0.81465   0.92834   0.00000  Uiso   1.00
H292   H     0.47686   0.76343   0.86528   0.00000  Uiso   1.00
H293   H     0.47672   0.69395   0.85765   0.00000  Uiso   1.00
H294   H     0.53897   0.73095   0.01982   0.00000  Uiso   1.00
H295   H     0.53840   0.80007   0.02861   0.00000  Uiso   1.00
H296   H     0.55937   0.67394  -0.04954   0.00000  Uiso   1.00
H297   H     0.55182   0.60764  -0.02698   0.00000  Uiso   1.00
H298   H     0.44242   0.57968   0.95128   0.00000  Uiso   1.00
H299   H     0.45000   0.64510   0.92704   0.00000  Uiso   1.00
C300   C     0.49631   0.33637   0.05660   0.00000  Uiso   1.00
C301   C     0.52768   0.36568   0.06923   0.00000  Uiso   1.00
C302   C     0.53216   0.40416   0.05970   0.00000  Uiso   1.00
C303   C     0.50493   0.41448   0.03982   0.00000  Uiso   1.00
C304   C     0.47269   0.38620   1.03185   0.00000  Uiso   1.00
C305   C     0.46851   0.34717   1.03947   0.00000  Uiso   1.00
C306   C     0.49416   0.29403   0.05477   0.00000  Uiso   1.00
C307   C     0.48135   0.26424   1.00198   0.00000  Uiso   1.00
C308   C     0.48251   0.22490   0.99682   0.00000  Uiso   1.00
C309   C     0.49609   0.21445   0.04476   0.00000  Uiso   1.00
C310   C     0.50833   0.24415   0.09811   0.00000  Uiso   1.00
C311   C     0.50746   0.28358   0.10300   0.00000  Uiso   1.00
C312   C     0.49649   0.17249   0.04010   0.00000  Uiso   1.00
C313   C     0.52465   0.16380   0.06022   0.00000  Uiso   1.00
C314   C     0.52369   0.12435   0.06000   0.00000  Uiso   1.00
C315   C     0.49491   0.09299   0.03873   0.00000  Uiso   1.00
C316   C     0.46709   0.10144   1.01758   0.00000  Uiso   1.00
C317   C     0.46795   0.14081   1.01785   0.00000  Uiso   1.00
H318   H     0.54949   0.35806   0.08227   0.00000  Uiso   1.00
H319   H     0.55739   0.42540   0.06506   0.00000  Uiso   1.00
H320   H     0.45158   0.39341   1.01534   0.00000  Uiso   1.00
H321   H     0.44407   0.32495   1.02963   0.00000  Uiso   1.00
H322   H     0.47145   0.27165   0.96368   0.00000  Uiso   1.00
H323   H     0.47333   0.20279   0.95477   0.00000  Uiso   1.00
H324   H     0.51825   0.23682   0.13644   0.00000  Uiso   1.00
H325   H     0.51717   0.30595   0.14447   0.00000  Uiso   1.00
H326   H     0.54717   0.18754   0.07696   0.00000  Uiso   1.00
H327   H     0.54493   0.11841   0.07826   0.00000  Uiso   1.00
H328   H     0.44441   0.07763   1.00198   0.00000  Uiso   1.00
H329   H     0.44571   0.14660   1.00284   0.00000  Uiso   1.00
loop_
_geom_bond_atom_site_label_1
_geom_bond_atom_site_label_2
_geom_bond_distance
_geom_bond_site_symmetry_2
_ccdc_geom_bond_type
Yb0    O3      2.083   .     S
Yb0    O4      2.105   .     S
Yb0    O7      2.089   .     S
Yb0    O5      2.142   1_556 S
Yb0    O8      2.104   1_556 S
Yb0    O12     2.187   1_556 S
Yb1    O9      2.085   .     S
Yb1    O10     2.107   .     S
Yb1    O14     2.089   .     S
Yb1    O6      2.186   1_554 S
Yb1    O13     2.154   1_554 S
Yb1    O16     2.105   1_554 S
C2     O14     1.291   .     A
C2     C153    1.478   .     S
C2     O16     1.294   1_554 A
O3     C11     1.290   .     A
O4     C11     1.295   .     A
O5     C15     1.263   .     A
O5     Yb0     2.142   1_554 S
O6     Yb1     2.186   1_556 S
O6     C15     1.273   1_556 A
O7     C17     1.291   .     A
O8     Yb0     2.104   1_554 S
O8     C17     1.294   1_554 A
O9     C18     1.289   .     A
O10    C18     1.295   .     A
C11    C75     1.473   .     S
O12    C19     1.276   .     A
O12    Yb0     2.187   1_554 S
O13    Yb1     2.154   1_556 S
O13    C19     1.265   1_556 A
C15    O6      1.273   1_554 A
C15    C285    1.471   1_554 S
O16    Yb1     2.105   1_556 S
O16    C2      1.294   1_556 A
C17    C225    1.476   .     S
C17    O8      1.294   1_556 A
C18    C63     1.476   .     S
C19    C303    1.468   .     S
C19    O13     1.265   1_554 A
Yb20   O23     2.113   .     S
Yb20   O27     2.095   .     S
Yb20   O24     2.096   1_455 S
Yb20   O25     2.163   1_455 S
Yb20   O28     2.116   1_556 S
Yb20   O32     2.166   1_556 S
Yb21   O29     2.113   .     S
Yb21   O34     2.090   .     S
Yb21   O26     2.161   1_554 S
Yb21   O30     2.094   1_655 S
Yb21   O33     2.163   1_655 S
Yb21   O36     2.114   1_554 S
C22    O34     1.289   .     A
C22    C183    1.477   .     S
C22    O36     1.294   1_554 A
O23    C31     1.293   1_455 A
O24    C31     1.289   .     A
O24    Yb20    2.096   1_655 S
O25    C35     1.275   .     A
O25    Yb20    2.163   1_655 S
O26    C35     1.271   .     A
O26    Yb21    2.161   1_556 S
O27    C37     1.289   .     A
O28    Yb20    2.116   1_554 S
O28    C37     1.293   1_554 A
O29    C38     1.293   1_655 A
O30    C38     1.289   .     A
O30    Yb21    2.094   1_455 S
C31    C93     1.479   .     S
C31    O23     1.293   1_655 A
O32    C39     1.272   .     A
O32    Yb20    2.166   1_554 S
O33    C39     1.275   .     A
O33    Yb21    2.163   1_455 S
C35    C213    1.471   .     S
O36    Yb21    2.114   1_556 S
O36    C22     1.294   1_556 A
C37    C255    1.481   .     S
C37    O28     1.293   1_556 A
C38    C105    1.479   .     S
C38    O29     1.293   1_455 A
C39    C165    1.471   .     S
Yb40   O43     2.105   .     S
Yb40   O47     2.099   .     S
Yb40   O44     2.091   1_565 S
Yb40   O45     2.157   1_565 S
Yb40   O48     2.103   1_554 S
Yb40   O52     2.164   1_554 S
Yb41   O49     2.104   .     S
Yb41   O54     2.099   .     S
Yb41   O46     2.160   1_556 S
Yb41   O50     2.094   1_545 S
Yb41   O53     2.156   1_545 S
Yb41   O56     2.102   1_556 S
C42    O54     1.292   .     A
C42    C195    1.477   .     S
C42    O56     1.292   1_556 A
O43    C51     1.293   1_565 A
O44    C51     1.291   .     A
O44    Yb40    2.091   1_545 S
O45    C55     1.272   .     A
O45    Yb40    2.157   1_545 S
O46    C55     1.271   .     A
O46    Yb41    2.160   1_554 S
O47    C57     1.292   .     A
O48    Yb40    2.103   1_556 S
O48    C57     1.291   1_556 A
O49    C58     1.293   1_545 A
O50    C58     1.291   .     A
O50    Yb41    2.094   1_565 S
C51    C123    1.476   .     S
C51    O43     1.293   1_545 A
O52    C59     1.273   .     A
O52    Yb40    2.164   1_556 S
O53    C59     1.273   .     A
O53    Yb41    2.156   1_565 S
C55    C315    1.466   .     S
O56    Yb41    2.102   1_554 S
O56    C42     1.292   1_554 A
C57    C243    1.477   .     S
C57    O48     1.291   1_554 A
C58    C135    1.476   .     S
C58    O49     1.293   1_565 A
C59    C273    1.469   .     S
C60    C61     1.404   .     A
C60    C65     1.408   .     A
C60    C66     1.486   .     S
C61    C62     1.396   .     A
C61    H78     1.083   .     S
C62    C63     1.405   .     A
C62    H79     1.083   .     S
C63    C64     1.402   .     A
C64    C65     1.399   .     A
C64    H80     1.082   .     S
C65    H81     1.082   .     S
C66    C67     1.404   .     A
C66    C71     1.408   .     A
C67    C68     1.396   .     A
C67    H82     1.083   .     S
C68    C69     1.406   .     A
C68    H83     1.083   .     S
C69    C70     1.404   .     A
C69    C72     1.485   .     S
C70    C71     1.399   .     A
C70    H84     1.083   .     S
C71    H85     1.083   .     S
C72    C73     1.407   .     A
C72    C77     1.405   .     A
C73    C74     1.400   .     A
C73    H86     1.082   .     S
C74    C75     1.403   .     A
C74    H87     1.083   .     S
C75    C76     1.404   .     A
C76    C77     1.394   .     A
C76    H88     1.083   .     S
C77    H89     1.083   .     S
C90    C91     1.405   .     A
C90    C95     1.408   .     A
C90    C96     1.488   .     S
C91    C92     1.397   .     A
C91    H108    1.083   .     S
C92    C93     1.405   .     A
C92    H109    1.083   .     S
C93    C94     1.404   .     A
C94    C95     1.400   .     A
C94    H110    1.082   1_655 S
C95    H111    1.082   1_655 S
C96    C97     1.405   .     A
C96    C101    1.407   .     A
C97    C98     1.398   .     A
C97    H112    1.083   1_655 S
C98    C99     1.407   .     A
C98    H113    1.083   1_655 S
C99    C100    1.405   .     A
C99    C102    1.488   .     S
C100   C101    1.399   .     A
C100   H114    1.083   .     S
C101   H115    1.083   .     S
C102   C103    1.408   .     A
C102   C107    1.405   1_655 A
C103   C104    1.401   .     A
C103   H116    1.083   .     S
C104   H117    1.083   .     S
C104   C105    1.405   1_655 A
C105   C106    1.405   .     A
C105   C104    1.405   1_455 A
C106   C107    1.396   .     A
C106   H118    1.082   .     S
C107   H119    1.083   .     S
C107   C102    1.405   1_455 A
H110   C94     1.082   1_455 S
H111   C95     1.082   1_455 S
H112   C97     1.083   1_455 S
H113   C98     1.083   1_455 S
C120   C125    1.407   .     A
C120   C126    1.485   .     S
C120   C121    1.405   1_545 A
C121   C122    1.395   .     A
C121   H138    1.082   .     S
C121   C120    1.405   1_565 A
C122   H139    1.083   .     S
C122   C123    1.404   1_565 A
C123   C124    1.404   .     A
C123   C122    1.404   1_545 A
C124   C125    1.399   .     A
C124   H140    1.083   .     S
C125   H141    1.083   .     S
C126   C127    1.405   .     A
C126   C131    1.406   1_545 A
C127   C128    1.397   .     A
C127   H142    1.083   .     S
C128   C129    1.406   .     A
C128   H143    1.083   .     S
C129   C132    1.485   .     S
C129   C130    1.405   1_545 A
C130   C131    1.397   .     A
C130   H144    1.083   .     S
C130   C129    1.405   1_565 A
C131   H145    1.083   .     S
C131   C126    1.406   1_565 A
C132   C137    1.405   .     A
C132   C133    1.406   1_545 A
C133   C134    1.399   .     A
C133   H146    1.083   .     S
C133   C132    1.406   1_565 A
C134   C135    1.404   .     A
C134   H147    1.083   .     S
C135   C136    1.404   1_565 A
C136   C137    1.396   .     A
C136   H148    1.083   .     S
C136   C135    1.404   1_545 A
C137   H149    1.083   .     S
C150   C155    1.406   .     A
C150   C156    1.490   .     S
C150   C151    1.409   1_554 A
C151   C152    1.402   .     A
C151   H168    1.082   .     S
C151   C150    1.409   1_556 A
C152   H169    1.084   .     S
C152   C153    1.404   1_556 A
C153   C154    1.403   .     A
C153   C152    1.404   1_554 A
C154   C155    1.395   .     A
C154   H170    1.082   .     S
C155   H171    1.082   .     S
C156   C157    1.407   .     A
C156   C161    1.408   1_554 A
C157   C158    1.394   .     A
C157   H172    1.082   .     S
C158   C159    1.403   .     A
C158   H173    1.083   .     S
C159   C162    1.479   .     S
C159   C160    1.403   1_554 A
C160   C161    1.400   .     A
C160   H174    1.082   .     S
C160   C159    1.403   1_556 A
C161   H175    1.082   .     S
C161   C156    1.408   1_556 A
C162   C167    1.404   .     A
C162   C163    1.405   1_554 A
C163   C164    1.400   .     A
C163   H176    1.083   .     S
C163   C162    1.405   1_556 A
C164   H177    1.083   .     S
C164   C165    1.404   1_556 A
C165   C166    1.402   .     A
C165   C164    1.404   1_554 A
C166   C167    1.394   .     A
C166   H178    1.083   .     S
C167   H179    1.083   .     S
C180   C181    1.402   .     A
C180   C186    1.479   .     S
C180   C185    1.406   1_554 A
C181   C182    1.395   .     A
C181   H198    1.083   .     S
C182   C183    1.405   .     A
C182   H199    1.083   .     S
C183   C184    1.405   1_554 A
C184   C185    1.401   .     A
C184   H200    1.083   .     S
C184   C183    1.405   1_556 A
C185   H201    1.083   .     S
C185   C180    1.406   1_556 A
C186   C191    1.406   .     A
C186   C187    1.402   1_554 A
C187   C188    1.398   .     A
C187   H202    1.083   .     S
C187   C186    1.402   1_556 A
C188   C189    1.406   .     A
C188   H203    1.083   .     S
C189   C192    1.481   .     S
C189   C190    1.404   1_556 A
C190   C191    1.397   .     A
C190   H204    1.083   .     S
C190   C189    1.404   1_554 A
C191   H205    1.083   .     S
C192   C197    1.404   .     A
C192   C193    1.405   1_556 A
C193   C194    1.399   .     A
C193   H206    1.083   .     S
C193   C192    1.405   1_554 A
C194   H207    1.083   .     S
C194   C195    1.405   1_554 A
C195   C196    1.405   .     A
C195   C194    1.405   1_556 A
C196   C197    1.397   .     A
C196   H208    1.083   .     S
C197   H209    1.083   .     S
C210   C215    1.403   .     A
C210   C216    1.477   .     S
C210   C211    1.404   1_556 A
C211   C212    1.400   .     A
C211   H228    1.083   .     S
C211   C210    1.404   1_554 A
C212   H229    1.083   .     S
C212   C213    1.403   1_554 A
C213   C214    1.403   .     A
C213   C212    1.403   1_556 A
C214   C215    1.395   .     A
C214   H230    1.083   .     S
C215   H231    1.083   .     S
C216   C217    1.402   .     A
C216   C221    1.403   1_556 A
C217   C218    1.393   .     A
C217   H232    1.083   .     S
C218   C219    1.406   .     A
C218   H233    1.082   .     S
C219   C222    1.488   .     S
C219   C220    1.409   1_556 A
C220   C221    1.401   .     A
C220   H234    1.082   .     S
C220   C219    1.409   1_554 A
C221   H235    1.083   .     S
C221   C216    1.403   1_554 A
C222   C227    1.406   .     A
C222   C223    1.407   1_556 A
C223   C224    1.400   .     A
C223   H236    1.082   .     S
C223   C222    1.407   1_554 A
C224   H237    1.083   .     S
C224   C225    1.404   1_554 A
C225   C226    1.403   .     A
C225   C224    1.404   1_556 A
C226   C227    1.394   .     A
C226   H238    1.083   .     S
C227   H239    1.083   .     S
C240   C245    1.404   .     A
C240   C246    1.483   .     S
C240   C241    1.406   1_554 A
C241   C242    1.399   .     A
C241   H258    1.083   .     S
C241   C240    1.406   1_556 A
C242   H259    1.083   .     S
C242   C243    1.405   1_556 A
C243   C244    1.404   .     A
C243   C242    1.405   1_554 A
C244   C245    1.397   .     A
C244   H260    1.083   .     S
C245   H261    1.082   .     S
C246   C247    1.406   .     A
C246   C251    1.404   1_554 A
C247   C248    1.399   .     A
C247   H262    1.083   .     S
C248   H263    1.083   .     S
C248   C249    1.404   1_554 A
C249   C250    1.406   .     A
C249   C252    1.483   .     S
C249   C248    1.404   1_556 A
C250   C251    1.398   .     A
C250   H264    1.083   .     S
C251   H265    1.083   .     S
C251   C246    1.404   1_556 A
C252   C253    1.403   .     A
C252   C257    1.406   1_556 A
C253   C254    1.396   .     A
C253   H266    1.084   .     S
C254   C255    1.406   .     A
C254   H267    1.082   .     S
C255   C256    1.406   1_556 A
C256   C257    1.402   .     A
C256   H268    1.082   .     S
C256   C255    1.406   1_554 A
C257   H269    1.083   .     S
C257   C252    1.406   1_554 A
C270   C275    1.408   .     A
C270   C276    1.487   .     S
C270   C271    1.406   1_556 A
C271   C272    1.395   .     A
C271   H288    1.082   .     S
C271   C270    1.406   1_554 A
C272   H289    1.083   .     S
C272   C273    1.402   1_554 A
C273   C274    1.401   .     A
C273   C272    1.402   1_556 A
C274   C275    1.398   .     A
C274   H290    1.083   .     S
C275   H291    1.082   .     S
C276   C277    1.407   .     A
C276   C281    1.406   1_556 A
C277   C278    1.399   .     A
C277   H292    1.083   .     S
C278   C279    1.405   .     A
C278   H293    1.083   .     S
C279   C282    1.483   .     S
C279   C280    1.405   1_556 A
C280   C281    1.396   .     A
C280   H294    1.084   .     S
C280   C279    1.405   1_554 A
C281   H295    1.083   .     S
C281   C276    1.406   1_554 A
C282   C287    1.403   .     A
C282   C283    1.407   1_556 A
C283   C284    1.401   .     A
C283   H296    1.083   .     S
C283   C282    1.407   1_554 A
C284   H297    1.083   .     S
C284   C285    1.402   1_554 A
C285   C286    1.403   .     A
C285   C284    1.402   1_556 A
C285   C15     1.471   1_556 S
C286   C287    1.395   .     A
C286   H298    1.084   .     S
C287   H299    1.083   .     S
C300   C301    1.403   .     A
C300   C306    1.480   .     S
C300   C305    1.406   1_554 A
C301   C302    1.395   .     A
C301   H318    1.083   .     S
C302   C303    1.402   .     A
C302   H319    1.083   .     S
C303   C304    1.403   1_554 A
C304   C305    1.401   .     A
C304   H320    1.083   .     S
C304   C303    1.403   1_556 A
C305   H321    1.083   .     S
C305   C300    1.406   1_556 A
C306   C311    1.404   .     A
C306   C307    1.404   1_554 A
C307   C308    1.396   .     A
C307   H322    1.084   .     S
C307   C306    1.404   1_556 A
C308   H323    1.083   .     S
C308   C309    1.405   1_556 A
C309   C310    1.406   .     A
C309   C312    1.482   .     S
C309   C308    1.405   1_554 A
C310   C311    1.397   .     A
C310   H324    1.083   .     S
C311   H325    1.083   .     S
C312   C313    1.407   .     A
C312   C317    1.405   1_554 A
C313   C314    1.397   .     A
C313   H326    1.083   .     S
C314   C315    1.400   .     A
C314   H327    1.083   .     S
C315   C316    1.401   1_554 A
C316   C317    1.395   .     A
C316   H328    1.083   .     S
C316   C315    1.401   1_556 A
C317   H329    1.083   .     S
C317   C312    1.405   1_556 A
