data_kag+N144+E225
_audit_creation_date              2025-01-21
_audit_creation_method            'Materials Studio'
_symmetry_space_group_name_H-M    'P1'
_symmetry_Int_Tables_number       1
_symmetry_cell_setting            triclinic
loop_
_symmetry_equiv_pos_as_xyz
  x,y,z
_cell_length_a                    41.4624
_cell_length_b                    41.1151
_cell_length_c                    19.8926
_cell_angle_alpha                 89.7883
_cell_angle_beta                  88.5750
_cell_angle_gamma                 120.0773
loop_
_atom_site_label
_atom_site_type_symbol
_atom_site_fract_x
_atom_site_fract_y
_atom_site_fract_z
_atom_site_U_iso_or_equiv
_atom_site_adp_type
_atom_site_occupancy
C0     C     0.63609   0.57155   0.94379   0.00000  Uiso   1.00
Er1    Er    0.50218   0.54150   0.01181   0.00000  Uiso   1.00
Er2    Er    0.56477   0.56734  -0.00195   0.00000  Uiso   1.00
C3     C     0.54531   0.62810   0.01625   0.00000  Uiso   1.00
O4     O     0.55892   0.56928   0.88993   0.00000  Uiso   1.00
C5     C     0.53964   0.55196   0.14506   0.00000  Uiso   1.00
C6     C     0.52597   0.48278  -0.00448   0.00000  Uiso   1.00
C7     C     0.44121   0.54581   1.02962   0.00000  Uiso   1.00
O8     O     0.61850   0.55887   0.89299   0.00000  Uiso   1.00
O9     O     0.62607   0.59113   0.98865   0.00000  Uiso   1.00
O10    O     0.55807   0.51178  -0.00837   0.00000  Uiso   1.00
O11    O     0.49752   0.48651   0.00286   0.00000  Uiso   1.00
O12    O     0.56854   0.56504   0.10641   0.00000  Uiso   1.00
O13    O     0.50772   0.53963   0.11994   0.00000  Uiso   1.00
C14    C     0.52699   0.55728   0.86489   0.00000  Uiso   1.00
O15    O     0.49810   0.54413   0.90357   0.00000  Uiso   1.00
O16    O     0.57298   0.62341   0.00567   0.00000  Uiso   1.00
O17    O     0.51234   0.59940   0.02025   0.00000  Uiso   1.00
O18    O     0.44171   0.51549   1.02517   0.00000  Uiso   1.00
O19    O     0.47385   0.57437   1.02482   0.00000  Uiso   1.00
C20    C     0.96148   0.42367   0.94755   0.00000  Uiso   1.00
Er21   Er    0.04736   0.56775   0.00775   0.00000  Uiso   1.00
Er22   Er    1.00758   0.50497   0.00216   0.00000  Uiso   1.00
C23    C     0.08651   0.52093   0.01339   0.00000  Uiso   1.00
O24    O     0.01446   0.50859   0.89316   0.00000  Uiso   1.00
C25    C     0.01918   0.53295   0.14599   0.00000  Uiso   1.00
C26    C     0.96676   0.54830  -0.00684   0.00000  Uiso   1.00
C27    C     0.11438   0.62729   1.01618   0.00000  Uiso   1.00
O28    O     0.98767   0.43312   0.90795   0.00000  Uiso   1.00
O29    O     0.96567   0.44400   1.00561   0.00000  Uiso   1.00
O30    O     0.96124   0.51507  -0.00601   0.00000  Uiso   1.00
O31    O    -0.00039   0.57566  -0.00079   0.00000  Uiso   1.00
O32    O     0.00191   0.50356   0.11109   0.00000  Uiso   1.00
O33    O     0.04047   0.56448   0.11671   0.00000  Uiso   1.00
C34    C     0.03623   0.54006   0.86399   0.00000  Uiso   1.00
O35    O     0.05362   0.56951   0.89887   0.00000  Uiso   1.00
O36    O     0.05332   0.49373   0.00940   0.00000  Uiso   1.00
O37    O     0.09254   0.55469   0.01462   0.00000  Uiso   1.00
O38    O     0.08479   0.62854   1.01065   0.00000  Uiso   1.00
O39    O     0.10808   0.59368   1.01738   0.00000  Uiso   1.00
C40    C     0.46790   0.11162   0.94666   0.00000  Uiso   1.00
Er41   Er    0.53073   0.03166   0.01639   0.00000  Uiso   1.00
Er42   Er    0.50424   0.06821   0.00768   0.00000  Uiso   1.00
C43    C     0.44459   0.98712   0.02292   0.00000  Uiso   1.00
O44    O     0.50506   0.06374   0.89898   0.00000  Uiso   1.00
C45    C     0.51811   0.05589   0.15263   0.00000  Uiso   1.00
C46    C     0.58823   0.11498   0.00299   0.00000  Uiso   1.00
C47    C     0.52640   0.96561   1.02567   0.00000  Uiso   1.00
O48    O     0.45361   0.08593   0.90725   0.00000  Uiso   1.00
O49    O     0.48121   0.10672   1.00718   0.00000  Uiso   1.00
O50    O     0.55918   0.11780   0.00210   0.00000  Uiso   1.00
O51    O     0.58495   0.08264   0.00707   0.00000  Uiso   1.00
O52    O     0.50450   0.07141   0.11648   0.00000  Uiso   1.00
O53    O     0.53145   0.03713   0.12491   0.00000  Uiso   1.00
C54    C     0.51680   0.04353   0.87150   0.00000  Uiso   1.00
O55    O     0.52914   0.02685   0.90782   0.00000  Uiso   1.00
O56    O     0.44866   0.01955   0.01385   0.00000  Uiso   1.00
O57    O     0.47344   0.98343   0.02598   0.00000  Uiso   1.00
O58    O     0.55659   0.99659   1.02175   0.00000  Uiso   1.00
O59    O     0.49818   0.97008   1.02636   0.00000  Uiso   1.00
C60    C     0.54342   0.55143   0.21884   0.00000  Uiso   1.00
C61    C     0.51179   0.53627   0.26235   0.00000  Uiso   1.00
C62    C     0.51558   0.53607   0.33202   0.00000  Uiso   1.00
C63    C     0.55120   0.55160   0.35956   0.00000  Uiso   1.00
C64    C     0.58254   0.56596   0.31611   0.00000  Uiso   1.00
C65    C     0.57883   0.56620   0.24653   0.00000  Uiso   1.00
C66    C     0.53279   0.55719   0.47178   0.00000  Uiso   1.00
H67    H     0.58271   0.58547   0.76764   0.00000  Uiso   1.00
H68    H     0.57632   0.58733   0.64618   0.00000  Uiso   1.00
H69    H     0.45696   0.53387   0.67336   0.00000  Uiso   1.00
H70    H     0.46307   0.53237   0.79539   0.00000  Uiso   1.00
H71    H     0.55334   0.54539   0.55764   0.00000  Uiso   1.00
O72    O     0.51058   0.56004   0.58104   0.00000  Uiso   1.00
O73    O     0.55656   0.55103   0.42896   0.00000  Uiso   1.00
C74    C     0.52336   0.55840   0.79115   0.00000  Uiso   1.00
C75    C     0.55504   0.57374   0.74778   0.00000  Uiso   1.00
C76    C     0.55137   0.57441   0.67814   0.00000  Uiso   1.00
C77    C     0.51580   0.55920   0.65045   0.00000  Uiso   1.00
C78    C     0.48441   0.54486   0.69380   0.00000  Uiso   1.00
C79    C     0.48801   0.54414   0.76337   0.00000  Uiso   1.00
C80    C     0.53436   0.55392   0.53815   0.00000  Uiso   1.00
H81    H     0.49067   0.52321   0.36410   0.00000  Uiso   1.00
H82    H     0.61003   0.57732   0.33650   0.00000  Uiso   1.00
H83    H     0.48411   0.52431   0.24255   0.00000  Uiso   1.00
H84    H     0.51383   0.56571   0.45222   0.00000  Uiso   1.00
H85    H     0.60376   0.57799   0.21445   0.00000  Uiso   1.00
C86    C     0.04152   0.54269   0.78985   0.00000  Uiso   1.00
C87    C     1.02058   0.51129   0.74968   0.00000  Uiso   1.00
C88    C     1.02558   0.51422   0.67960   0.00000  Uiso   1.00
C89    C     0.05145   0.54877   0.64844   0.00000  Uiso   1.00
C90    C     0.07304   0.57961   0.68862   0.00000  Uiso   1.00
C91    C     0.06797   0.57681   0.75850   0.00000  Uiso   1.00
C92    C     0.02690   0.53492   0.53847   0.00000  Uiso   1.00
H93    H     0.05733   0.58753   0.23821   0.00000  Uiso   1.00
H94    H     0.04956   0.58180   0.36078   0.00000  Uiso   1.00
H95    H     0.96238   0.46644   0.34441   0.00000  Uiso   1.00
H96    H     0.96969   0.47190   0.22171   0.00000  Uiso   1.00
H97    H     0.05947   0.55036   0.44959   0.00000  Uiso   1.00
O98    O    -0.00015   0.51828   0.43186   0.00000  Uiso   1.00
O99    O     0.05832   0.55300   0.57854   0.00000  Uiso   1.00
C100   C     0.01448   0.53004   0.22023   0.00000  Uiso   1.00
C101   C     0.03673   0.56083   0.26073   0.00000  Uiso   1.00
C102   C     0.03260   0.55742   0.33092   0.00000  Uiso   1.00
C103   C     0.00619   0.52299   0.36184   0.00000  Uiso   1.00
C104   C     0.98337   0.49278   0.32137   0.00000  Uiso   1.00
C105   C     0.98762   0.49603   0.25139   0.00000  Uiso   1.00
C106   C     0.03137   0.53625   0.47172   0.00000  Uiso   1.00
H107   H     1.00967   0.48944   0.64995   0.00000  Uiso   1.00
H108   H     0.09363   0.60609   0.66542   0.00000  Uiso   1.00
H109   H     1.00042   0.48445   0.77235   0.00000  Uiso   1.00
H110   H     0.99877   0.52077   0.56049   0.00000  Uiso   1.00
H111   H     0.08493   0.60139   0.78799   0.00000  Uiso   1.00
C112   C     0.51854   0.06016   0.22645   0.00000  Uiso   1.00
C113   C     0.53295   0.04299   0.26779   0.00000  Uiso   1.00
C114   C     0.53389   0.04783   0.33741   0.00000  Uiso   1.00
C115   C     0.51996   0.06960   0.36698   0.00000  Uiso   1.00
C116   C     0.50620   0.08714   0.32565   0.00000  Uiso   1.00
C117   C     0.50514   0.08226   0.25619   0.00000  Uiso   1.00
C118   C     0.51414   0.04643   0.47918   0.00000  Uiso   1.00
H119   H     0.49273   0.07501   0.77813   0.00000  Uiso   1.00
H120   H     0.48917   0.06538   0.65694   0.00000  Uiso   1.00
H121   H     0.53449   0.99177   0.67650   0.00000  Uiso   1.00
H122   H     0.53751   1.00064   0.79830   0.00000  Uiso   1.00
H123   H     0.52934   0.08035   0.56361   0.00000  Uiso   1.00
O124   O     0.51100   0.02178   0.58809   0.00000  Uiso   1.00
O125   O     0.52170   0.07669   0.43616   0.00000  Uiso   1.00
C126   C     0.51580   0.03894   0.79774   0.00000  Uiso   1.00
C127   C     0.50236   0.05712   0.75659   0.00000  Uiso   1.00
C128   C     0.50073   0.05195   0.68707   0.00000  Uiso   1.00
C129   C     0.51311   0.02891   0.65730   0.00000  Uiso   1.00
C130   C     0.52573   0.01025   0.69851   0.00000  Uiso   1.00
C131   C     0.52739   0.01538   0.76794   0.00000  Uiso   1.00
C132   C     0.51869   0.05205   0.54495   0.00000  Uiso   1.00
H133   H     0.54613   1.03519   0.36783   0.00000  Uiso   1.00
H134   H     0.49608   0.10453   0.34759   0.00000  Uiso   1.00
H135   H     0.54386   1.02615   0.24632   0.00000  Uiso   1.00
H136   H     0.50360   0.01818   0.46036   0.00000  Uiso   1.00
H137   H     0.49409   0.09610   0.22575   0.00000  Uiso   1.00
C138   C     0.40672   0.54759   1.03918   0.00000  Uiso   1.00
C139   C     0.37285   0.51483   0.05566   0.00000  Uiso   1.00
C140   C     0.34000   0.51621   0.06439   0.00000  Uiso   1.00
C141   C     0.34037   0.55041   1.05572   0.00000  Uiso   1.00
C142   C     0.37433   0.58317   1.04069   0.00000  Uiso   1.00
C143   C     0.40719   0.58179   1.03183   0.00000  Uiso   1.00
C144   C     0.27488   0.52378   1.04187   0.00000  Uiso   1.00
H145   H     0.16021   0.57268   0.99847   0.00000  Uiso   1.00
H146   H     0.21309   0.56290   1.00306   0.00000  Uiso   1.00
H147   H     0.13878   0.44414   0.03630   0.00000  Uiso   1.00
H148   H     0.08502   0.45386   0.03082   0.00000  Uiso   1.00
H149   H     0.24384   0.54701   1.08070   0.00000  Uiso   1.00
O150   O     0.20985   0.49565   0.02575   0.00000  Uiso   1.00
O151   O     0.30831   0.55345   1.06564   0.00000  Uiso   1.00
C152   C     0.11839   0.51424   0.01617   0.00000  Uiso   1.00
C153   C     0.15500   0.54457   1.00830   0.00000  Uiso   1.00
C154   C     0.18543   0.53896   1.01141   0.00000  Uiso   1.00
C155   C     0.18002   0.50277   0.02360   0.00000  Uiso   1.00
C156   C     0.14349   0.47231   0.02900   0.00000  Uiso   1.00
C157   C     0.11289   0.47790   0.02570   0.00000  Uiso   1.00
C158   C     0.24322   0.52429   1.05185   0.00000  Uiso   1.00
H159   H     0.31453   0.49072   0.07891   0.00000  Uiso   1.00
H160   H     0.37517   0.60979   1.03494   0.00000  Uiso   1.00
H161   H     0.37183   0.48818   0.06249   0.00000  Uiso   1.00
H162   H     0.27443   0.50131   0.01253   0.00000  Uiso   1.00
H163   H     0.43279   0.60736   1.01850   0.00000  Uiso   1.00
C164   C     0.92497   0.38989   0.93642   0.00000  Uiso   1.00
C165   C     0.89279   0.38723   0.96671   0.00000  Uiso   1.00
C166   C     0.85802   0.35522   0.95908   0.00000  Uiso   1.00
C167   C     0.85480   0.32431   0.92298   0.00000  Uiso   1.00
C168   C     0.88677   0.32764   0.89053   0.00000  Uiso   1.00
C169   C     0.92161   0.36014   0.89700   0.00000  Uiso   1.00
C170   C     0.79348   0.28103   0.96728   0.00000  Uiso   1.00
H171   H     0.65558   0.11984   0.97695   0.00000  Uiso   1.00
H172   H     0.71751   0.17624   0.97938   0.00000  Uiso   1.00
H173   H     0.66735   0.24318   0.02891   0.00000  Uiso   1.00
H174   H     0.60517   0.18711   0.02554   0.00000  Uiso   1.00
H175   H     0.75116   0.23790   0.91264   0.00000  Uiso   1.00
O176   O     0.73170   0.24621   0.01028   0.00000  Uiso   1.00
O177   O     0.82050   0.29089   0.91516   0.00000  Uiso   1.00
C178   C     0.62554   0.14912   0.00070   0.00000  Uiso   1.00
C179   C     0.65771   0.14667  -0.01266   0.00000  Uiso   1.00
C180   C     0.69305   0.17887   0.98813   0.00000  Uiso   1.00
C181   C     0.69676   0.21402   0.00265   0.00000  Uiso   1.00
C182   C     0.66477   0.21639   0.01643   0.00000  Uiso   1.00
C183   C     0.62941   0.18439   0.01449   0.00000  Uiso   1.00
C184   C     0.75859   0.25331   0.95939   0.00000  Uiso   1.00
H185   H     0.83382   0.35503  -0.01889   0.00000  Uiso   1.00
H186   H     0.88468   0.30467   0.86089   0.00000  Uiso   1.00
H187   H     0.89440   0.41021   0.99576   0.00000  Uiso   1.00
H188   H     0.80026   0.29531   0.01511   0.00000  Uiso   1.00
H189   H     0.94595   0.36167   0.87250   0.00000  Uiso   1.00
C190   C     0.93547   0.55534  -0.01628   0.00000  Uiso   1.00
C191   C     0.89895   0.52529  -0.02374   0.00000  Uiso   1.00
C192   C     0.86975   0.53218  -0.03529   0.00000  Uiso   1.00
C193   C     0.87656   0.56931   0.96087   0.00000  Uiso   1.00
C194   C     0.91297   0.59916   0.96716   0.00000  Uiso   1.00
C195   C     0.94213   0.59235  -0.02088   0.00000  Uiso   1.00
C196   C     0.81429   0.55605   0.98065   0.00000  Uiso   1.00
H197   H     0.67817   0.55640   0.85530   0.00000  Uiso   1.00
H198   H     0.72820   0.54353   0.88196   0.00000  Uiso   1.00
H199   H     0.71308   0.55785   1.09251   0.00000  Uiso   1.00
H200   H     0.66306   0.57093   1.06637   0.00000  Uiso   1.00
H201   H     0.79034   0.58299   0.93028   0.00000  Uiso   1.00
O202   O     0.75288   0.54290   1.00672   0.00000  Uiso   1.00
O203   O     0.84858   0.57767   0.94597   0.00000  Uiso   1.00
C204   C     0.66728   0.56533   0.95871   0.00000  Uiso   1.00
C205   C     0.68586   0.55726   0.90718   0.00000  Uiso   1.00
C206   C     0.71456   0.55019   0.92226   0.00000  Uiso   1.00
C207   C     0.72506   0.55101   0.98927   0.00000  Uiso   1.00
C208   C     0.70584   0.55803   1.04065   0.00000  Uiso   1.00
C209   C     0.67753   0.56567   1.02557   0.00000  Uiso   1.00
C210   C     0.78620   0.56198   0.96820   0.00000  Uiso   1.00
H211   H     0.84208   0.50863  -0.04276   0.00000  Uiso   1.00
H212   H     0.91867   0.62783   0.96294   0.00000  Uiso   1.00
H213   H     0.89306   0.49649  -0.02173   0.00000  Uiso   1.00
H214   H     0.81062   0.53582   1.01982   0.00000  Uiso   1.00
H215   H     0.97000   0.61613   0.98377   0.00000  Uiso   1.00
C216   C     0.40691   0.95364   0.03010   0.00000  Uiso   1.00
C217   C     0.40233   0.91985   0.05683   0.00000  Uiso   1.00
C218   C     0.36700   0.88785   0.06261   0.00000  Uiso   1.00
C219   C     0.33546   0.88897   1.04126   0.00000  Uiso   1.00
C220   C     0.33982   0.92299   0.01696   0.00000  Uiso   1.00
C221   C     0.37524   0.95505   0.01094   0.00000  Uiso   1.00
C222   C     0.29583   0.82285   1.03183   0.00000  Uiso   1.00
H223   H     0.13309   0.69973   0.99184   0.00000  Uiso   1.00
H224   H     0.19481   0.75547   0.99358   0.00000  Uiso   1.00
H225   H     0.24182   0.68705   1.05113   0.00000  Uiso   1.00
H226   H     0.17972   0.63076   1.04809   0.00000  Uiso   1.00
H227   H     0.24021   0.79343   1.06553   0.00000  Uiso   1.00
O228   O     0.25946   0.75668   1.02516   0.00000  Uiso   1.00
O229   O     0.29930   0.85772   1.04753   0.00000  Uiso   1.00
C230   C     0.15166   0.66097   1.01992   0.00000  Uiso   1.00
C231   C     0.15653   0.69664   1.00568   0.00000  Uiso   1.00
C232   C     0.19188   0.72865   1.00750   0.00000  Uiso   1.00
C233   C     0.22302   0.72563   1.02523   0.00000  Uiso   1.00
C234   C     0.21808   0.68994   1.03869   0.00000  Uiso   1.00
C235   C     0.18273   0.65787   1.03652   0.00000  Uiso   1.00
C236   C     0.26319   0.79147   1.04239   0.00000  Uiso   1.00
H237   H     0.36428   0.86245   0.08467   0.00000  Uiso   1.00
H238   H     0.31566   0.92443   0.00180   0.00000  Uiso   1.00
H239   H     0.42598   0.91830   0.07447   0.00000  Uiso   1.00
H240   H     0.31886   0.82090   1.00876   0.00000  Uiso   1.00
H241   H     0.37784   0.98079  -0.00918   0.00000  Uiso   1.00
C242   C     0.52412   0.92863   1.02690   0.00000  Uiso   1.00
C243   C     0.55668   0.92612   1.02432   0.00000  Uiso   1.00
C244   C     0.55444   0.89106   1.02147   0.00000  Uiso   1.00
C245   C     0.51940   0.85778   1.02229   0.00000  Uiso   1.00
C246   C     0.48709   0.86049   1.02442   0.00000  Uiso   1.00
C247   C     0.48931   0.89549   1.02694   0.00000  Uiso   1.00
C248   C     0.54295   0.81568   1.04003   0.00000  Uiso   1.00
H249   H     0.49334   0.64798   1.04945   0.00000  Uiso   1.00
H250   H     0.50294   0.71088   1.06522   0.00000  Uiso   1.00
H251   H     0.62055   0.75837   0.02212   0.00000  Uiso   1.00
H252   H     0.61108   0.69505   0.00584   0.00000  Uiso   1.00
H253   H     0.52049   0.76380   0.99344   0.00000  Uiso   1.00
O254   O     0.56923   0.77633   1.05104   0.00000  Uiso   1.00
O255   O     0.51512   0.82186   1.01483   0.00000  Uiso   1.00
C256   C     0.55122   0.66647   0.02478   0.00000  Uiso   1.00
C257   C     0.52111   0.67174   1.04187   0.00000  Uiso   1.00
C258   C     0.52660   0.70782   1.05065   0.00000  Uiso   1.00
C259   C     0.56244   0.73956   0.04187   0.00000  Uiso   1.00
C260   C     0.59268   0.73430   0.02718   0.00000  Uiso   1.00
C261   C     0.58717   0.69815   0.01801   0.00000  Uiso   1.00
C262   C     0.54211   0.78364   1.02586   0.00000  Uiso   1.00
H263   H     0.58006   0.89023   0.01647   0.00000  Uiso   1.00
H264   H     0.46000   0.83524   1.02335   0.00000  Uiso   1.00
H265   H     0.58389   0.95130   0.02289   0.00000  Uiso   1.00
H266   H     0.56427   0.83562   1.07270   0.00000  Uiso   1.00
H267   H     0.46380   0.89658   1.02742   0.00000  Uiso   1.00
C268   C     0.52202   0.44508  -0.00695   0.00000  Uiso   1.00
C269   C     0.48782   0.41337  -0.02241   0.00000  Uiso   1.00
C270   C     0.48397   0.37755  -0.02177   0.00000  Uiso   1.00
C271   C     0.51420   0.37296  -0.00491   0.00000  Uiso   1.00
C272   C     0.54814   0.40449   0.01077   0.00000  Uiso   1.00
C273   C     0.55229   0.44034   0.00872   0.00000  Uiso   1.00
C274   C     0.49426   0.31248  -0.04931   0.00000  Uiso   1.00
H275   H     0.51785   0.17882   0.99596   0.00000  Uiso   1.00
H276   H     0.52244   0.23933   0.97743   0.00000  Uiso   1.00
H277   H     0.42816   0.18817   0.84819   0.00000  Uiso   1.00
H278   H     0.42481   0.12707   0.86394   0.00000  Uiso   1.00
H279   H     0.49115   0.26856   1.00775   0.00000  Uiso   1.00
O280   O     0.47426   0.25215   0.90470   0.00000  Uiso   1.00
O281   O     0.51022   0.33732   0.00388   0.00000  Uiso   1.00
C282   C     0.47046   0.14813   0.93260   0.00000  Uiso   1.00
C283   C     0.49785   0.18034   0.96401   0.00000  Uiso   1.00
C284   C     0.50011   0.21501   0.95406   0.00000  Uiso   1.00
C285   C     0.47400   0.21802   0.91428   0.00000  Uiso   1.00
C286   C     0.44772   0.18615   0.88054   0.00000  Uiso   1.00
C287   C     0.44591   0.15143   0.88942   0.00000  Uiso   1.00
C288   C     0.48698   0.27721   0.95855   0.00000  Uiso   1.00
H289   H     0.45720   0.35333  -0.03220   0.00000  Uiso   1.00
H290   H     0.57134   0.40114   0.02510   0.00000  Uiso   1.00
H291   H     0.46402   0.41625  -0.03436   0.00000  Uiso   1.00
H292   H     0.48966   0.32190  -0.09746   0.00000  Uiso   1.00
H293   H     0.57886   0.46423   0.02149   0.00000  Uiso   1.00
loop_
_geom_bond_atom_site_label_1
_geom_bond_atom_site_label_2
_geom_bond_distance
_geom_bond_site_symmetry_2
_ccdc_geom_bond_type
C0     O8      1.218   .     D
C0     O9      1.393   .     S
C0     C204    1.475   .     S
Er1    O11     2.179   .     S
Er1    O13     2.174   .     S
Er1    O17     2.208   .     S
Er1    O15     2.171   1_554 S
Er1    O18     2.186   1_554 S
Er1    O19     2.202   1_554 S
Er2    O10     2.163   .     S
Er2    O12     2.170   .     S
Er2    O16     2.161   .     S
Er2    O4      2.176   1_554 S
Er2    O9      2.221   1_554 S
C3     O16     1.268   .     A
C3     O17     1.282   .     A
C3     C256    1.481   .     S
O4     C14     1.274   .     A
O4     Er2     2.176   1_556 S
C5     O12     1.273   .     A
C5     O13     1.273   .     A
C5     C60     1.481   .     S
C6     O10     1.266   .     A
C6     O11     1.269   .     A
C6     C268    1.476   .     S
C7     O18     1.261   .     A
C7     O19     1.273   .     A
C7     C138    1.476   .     S
O9     Er2     2.221   1_556 S
C14    O15     1.273   .     A
C14    C74     1.481   .     S
O15    Er1     2.171   1_556 S
O18    Er1     2.186   1_556 S
O19    Er1     2.202   1_556 S
C20    O28     1.218   .     D
C20    O29     1.391   .     S
C20    C164    1.477   .     S
Er21   O31     2.172   .     S
Er21   O33     2.174   .     S
Er21   O37     2.199   .     S
Er21   O35     2.172   1_554 S
Er21   O38     2.186   1_554 S
Er21   O39     2.202   1_554 S
Er22   O30     2.169   .     S
Er22   O24     2.175   1_654 S
Er22   O29     2.222   1_554 S
Er22   O32     2.171   1_655 S
Er22   O36     2.173   1_655 S
C23    O36     1.271   .     A
C23    O37     1.282   .     A
C23    C152    1.481   .     S
O24    C34     1.274   .     A
O24    Er22    2.175   1_456 S
C25    O32     1.272   .     A
C25    O33     1.273   .     A
C25    C100    1.481   .     S
C26    O30     1.267   .     A
C26    C190    1.480   .     S
C26    O31     1.268   1_655 A
C27    O38     1.261   .     A
C27    O39     1.271   .     A
C27    C230    1.474   .     S
O29    Er22    2.222   1_556 S
O31    C26     1.268   1_455 A
O32    Er22    2.171   1_455 S
C34    O35     1.274   .     A
C34    C86     1.481   .     S
O35    Er21    2.172   1_556 S
O36    Er22    2.173   1_455 S
O38    Er21    2.186   1_556 S
O39    Er21    2.202   1_556 S
C40    O48     1.218   .     D
C40    O49     1.392   .     S
C40    C282    1.476   .     S
Er41   O51     2.176   .     S
Er41   O53     2.171   .     S
Er41   O55     2.169   1_554 S
Er41   O57     2.206   1_545 S
Er41   O58     2.190   1_544 S
Er41   O59     2.198   1_544 S
Er42   O50     2.165   .     S
Er42   O52     2.169   .     S
Er42   O56     2.166   .     S
Er42   O44     2.172   1_554 S
Er42   O49     2.221   1_554 S
C43    O57     1.282   .     A
C43    C216    1.479   .     S
C43    O56     1.269   1_565 A
O44    C54     1.273   .     A
O44    Er42    2.172   1_556 S
C45    O52     1.273   .     A
C45    O53     1.273   .     A
C45    C112    1.479   .     S
C46    O50     1.267   .     A
C46    O51     1.269   .     A
C46    C178    1.478   .     S
C47    O58     1.262   .     A
C47    O59     1.272   .     A
C47    C242    1.475   .     S
O49    Er42    2.221   1_556 S
C54    O55     1.273   .     A
C54    C126    1.479   .     S
O55    Er41    2.169   1_556 S
O56    C43     1.269   1_545 A
O57    Er41    2.206   1_565 S
O58    Er41    2.190   1_566 S
O59    Er41    2.198   1_566 S
C60    C61     1.406   .     A
C60    C65     1.406   .     A
C61    C62     1.399   .     A
C61    H83     1.083   .     S
C62    C63     1.410   .     A
C62    H81     1.082   .     S
C63    C64     1.398   .     A
C63    O73     1.406   .     S
C64    C65     1.397   .     A
C64    H82     1.083   .     S
C65    H85     1.083   .     S
C66    O73     1.404   .     S
C66    C80     1.333   .     D
C66    H84     1.088   .     S
H67    C75     1.084   .     S
H68    C76     1.082   .     S
H69    C78     1.083   .     S
H70    C79     1.083   .     S
H71    C80     1.088   .     S
O72    C77     1.406   .     S
O72    C80     1.404   .     S
C74    C75     1.406   .     A
C74    C79     1.407   .     A
C75    C76     1.399   .     A
C76    C77     1.410   .     A
C77    C78     1.399   .     A
C78    C79     1.397   .     A
C86    C91     1.406   .     A
C86    C87     1.406   1_455 A
C87    C88     1.400   .     A
C87    H109    1.083   .     S
C87    C86     1.406   1_655 A
C88    H107    1.082   .     S
C88    C89     1.409   1_655 A
C89    C90     1.398   .     A
C89    O99     1.405   .     S
C89    C88     1.409   1_455 A
C90    C91     1.396   .     A
C90    H108    1.083   .     S
C91    H111    1.083   .     S
C92    O99     1.404   .     S
C92    C106    1.333   .     D
C92    H110    1.088   1_455 S
H93    C101    1.083   .     S
H94    C102    1.082   .     S
H95    C104    1.083   .     S
H96    C105    1.083   .     S
H97    C106    1.088   .     S
O98    C103    1.405   .     S
O98    C106    1.404   .     S
C100   C101    1.406   .     A
C100   C105    1.406   1_455 A
C101   C102    1.400   .     A
C102   C103    1.410   .     A
C103   C104    1.398   1_455 A
C104   C105    1.396   .     A
C104   C103    1.398   1_655 A
C105   C100    1.406   1_655 A
H110   C92     1.088   1_655 S
C112   C113    1.405   .     A
C112   C117    1.406   .     A
C113   C114    1.399   .     A
C113   H135    1.083   1_545 S
C114   C115    1.410   .     A
C114   H133    1.082   1_545 S
C115   C116    1.397   .     A
C115   O125    1.404   .     S
C116   C117    1.396   .     A
C116   H134    1.083   .     S
C117   H137    1.083   .     S
C118   O125    1.402   .     S
C118   C132    1.331   .     D
C118   H136    1.088   .     S
H119   C127    1.083   .     S
H120   C128    1.082   .     S
H121   C130    1.083   1_565 S
H122   C131    1.083   1_565 S
H123   C132    1.088   .     S
O124   C129    1.404   .     S
O124   C132    1.403   .     S
C126   C127    1.405   .     A
C126   C131    1.406   .     A
C127   C128    1.398   .     A
C128   C129    1.410   .     A
C129   C130    1.398   .     A
C130   C131    1.396   .     A
C130   H121    1.083   1_545 S
C131   H122    1.083   1_545 S
H133   C114    1.082   1_565 S
H135   C113    1.083   1_565 S
C138   C143    1.403   .     A
C138   C139    1.404   1_556 A
C139   C140    1.398   .     A
C139   H161    1.083   .     S
C139   C138    1.404   1_554 A
C140   H159    1.082   .     S
C140   C141    1.409   1_554 A
C141   C142    1.400   .     A
C141   O151    1.405   .     S
C141   C140    1.409   1_556 A
C142   C143    1.399   .     A
C142   H160    1.083   .     S
C143   H163    1.081   .     S
C144   O151    1.405   .     S
C144   C158    1.333   .     D
C144   H162    1.087   1_556 S
H145   C153    1.080   .     S
H146   C154    1.081   .     S
H147   C156    1.082   .     S
H148   C157    1.082   .     S
H149   C158    1.088   .     S
O150   C155    1.408   .     S
O150   C158    1.406   1_554 S
C152   C157    1.405   .     A
C152   C153    1.404   1_554 A
C153   C154    1.394   .     A
C153   C152    1.404   1_556 A
C154   C155    1.408   1_556 A
C155   C156    1.401   .     A
C155   C154    1.408   1_554 A
C156   C157    1.401   .     A
C158   O150    1.406   1_556 S
H162   C144    1.087   1_554 S
C164   C165    1.403   .     A
C164   C169    1.404   .     A
C165   C166    1.394   .     A
C165   H187    1.083   .     S
C166   C167    1.411   .     A
C166   H185    1.081   1_556 S
C167   C168    1.402   .     A
C167   O177    1.410   .     S
C168   C169    1.402   .     A
C168   H186    1.083   .     S
C169   H189    1.083   .     S
C170   O177    1.407   .     S
C170   C184    1.333   .     D
C170   H188    1.087   1_556 S
H171   C179    1.083   1_556 S
H172   C180    1.082   .     S
H173   C182    1.083   .     S
H174   C183    1.083   .     S
H175   C184    1.088   .     S
O176   C181    1.401   .     S
O176   C184    1.403   1_554 S
C178   C179    1.406   .     A
C178   C183    1.406   .     A
C179   H171    1.083   1_554 S
C179   C180    1.399   1_554 A
C180   C179    1.399   1_556 A
C180   C181    1.406   1_556 A
C181   C182    1.398   .     A
C181   C180    1.406   1_554 A
C182   C183    1.397   .     A
C184   O176    1.403   1_556 S
H185   C166    1.081   1_554 S
H188   C170    1.087   1_554 S
C190   C191    1.406   .     A
C190   C195    1.406   .     A
C191   C192    1.399   .     A
C191   H213    1.083   .     S
C192   H211    1.082   .     S
C192   C193    1.408   1_554 A
C193   C194    1.398   .     A
C193   O203    1.403   .     S
C193   C192    1.408   1_556 A
C194   H212    1.083   .     S
C194   C195    1.396   1_556 A
C195   C194    1.396   1_554 A
C195   H215    1.083   1_554 S
C196   O203    1.403   .     S
C196   C210    1.332   .     D
C196   H214    1.088   .     S
H197   C205    1.083   .     S
H198   C206    1.082   .     S
H199   C208    1.083   .     S
H200   C209    1.083   .     S
H201   C210    1.089   .     S
O202   C207    1.402   .     S
O202   C210    1.403   .     S
C204   C205    1.405   .     A
C204   C209    1.404   .     A
C205   C206    1.398   .     A
C206   C207    1.408   .     A
C207   C208    1.398   .     A
C208   C209    1.397   .     A
H215   C195    1.083   1_556 S
C216   C217    1.405   .     A
C216   C221    1.405   .     A
C217   C218    1.396   .     A
C217   H239    1.081   .     S
C218   H237    1.083   .     S
C218   C219    1.408   1_554 A
C219   O229    1.404   .     S
C219   C218    1.408   1_556 A
C219   C220    1.400   1_556 A
C220   C221    1.399   .     A
C220   H238    1.083   .     S
C220   C219    1.400   1_554 A
C221   H241    1.083   .     S
C222   O229    1.404   .     S
C222   C236    1.332   .     D
C222   H240    1.088   .     S
H223   C231    1.083   .     S
H224   C232    1.082   .     S
H225   C234    1.083   .     S
H226   C235    1.081   .     S
H227   C236    1.087   .     S
O228   C233    1.407   .     S
O228   C236    1.404   .     S
C230   C231    1.403   .     A
C230   C235    1.404   .     A
C231   C232    1.397   .     A
C232   C233    1.411   .     A
C233   C234    1.400   .     A
C234   C235    1.398   .     A
C242   C243    1.404   .     A
C242   C247    1.403   .     A
C243   C244    1.399   .     A
C243   H265    1.083   1_556 S
C244   C245    1.411   .     A
C244   H263    1.082   1_556 S
C245   C246    1.399   .     A
C245   O255    1.405   .     S
C246   C247    1.396   .     A
C246   H264    1.083   .     S
C247   H267    1.081   .     S
C248   O255    1.403   .     S
C248   C262    1.332   .     D
C248   H266    1.087   .     S
H249   C257    1.079   .     S
H250   C258    1.083   .     S
H251   C260    1.083   .     S
H252   C261    1.083   .     S
H253   C262    1.088   .     S
O254   C262    1.404   .     S
O254   C259    1.406   1_556 S
C256   C261    1.407   .     A
C256   C257    1.404   1_554 A
C257   C258    1.396   .     A
C257   C256    1.404   1_556 A
C258   C259    1.408   1_556 A
C259   C260    1.399   .     A
C259   O254    1.406   1_554 S
C259   C258    1.408   1_554 A
C260   C261    1.399   .     A
H263   C244    1.082   1_554 S
H265   C243    1.083   1_554 S
C268   C269    1.406   .     A
C268   C273    1.405   .     A
C269   C270    1.400   .     A
C269   H291    1.083   .     S
C270   C271    1.406   .     A
C270   H289    1.083   .     S
C271   C272    1.398   .     A
C271   O281    1.400   .     S
C272   C273    1.396   .     A
C272   H290    1.083   .     S
C273   H293    1.084   .     S
C274   O281    1.402   .     S
C274   H292    1.088   .     S
C274   C288    1.332   1_554 D
H275   C283    1.083   .     S
H276   C284    1.082   .     S
H277   C286    1.083   .     S
H278   C287    1.083   .     S
H279   C288    1.087   .     S
O280   C285    1.410   .     S
O280   C288    1.407   .     S
C282   C283    1.403   .     A
C282   C287    1.405   .     A
C283   C284    1.394   .     A
C284   C285    1.411   .     A
C285   C286    1.402   .     A
C286   C287    1.402   .     A
C288   C274    1.332   1_556 D
