data_kag+N144+E8
_audit_creation_date              2025-01-21
_audit_creation_method            'Materials Studio'
_symmetry_space_group_name_H-M    'P1'
_symmetry_Int_Tables_number       1
_symmetry_cell_setting            triclinic
loop_
_symmetry_equiv_pos_as_xyz
  x,y,z
_cell_length_a                    27.7216
_cell_length_b                    27.9125
_cell_length_c                    13.3443
_cell_angle_alpha                 106.4781
_cell_angle_beta                  77.0218
_cell_angle_gamma                 120.2540
loop_
_atom_site_label
_atom_site_type_symbol
_atom_site_fract_x
_atom_site_fract_y
_atom_site_fract_z
_atom_site_U_iso_or_equiv
_atom_site_adp_type
_atom_site_occupancy
C0     C     0.66402   0.61926   1.02591   0.00000  Uiso   1.00
Er1    Er    0.46176   0.58550   0.10378   0.00000  Uiso   1.00
Er2    Er    0.56021   0.63043   0.09977   0.00000  Uiso   1.00
C3     C     0.50977   0.71205   0.16063   0.00000  Uiso   1.00
O4     O     0.57097   0.63143   0.93411   0.00000  Uiso   1.00
C5     C     0.50045   0.60505   0.31362   0.00000  Uiso   1.00
C6     C     0.50549   0.50020   0.03903   0.00000  Uiso   1.00
C7     C     0.37296   0.54983   1.00612   0.00000  Uiso   1.00
O8     O     0.67525   0.66445   1.00705   0.00000  Uiso   1.00
O9     O     0.61011   0.58503   1.07039   0.00000  Uiso   1.00
O10    O     0.55249   0.54513   0.05696   0.00000  Uiso   1.00
O11    O     0.46051   0.50385   0.05144   0.00000  Uiso   1.00
O12    O     0.54874   0.63016   0.26591   0.00000  Uiso   1.00
O13    O     0.45691   0.58067   0.26525   0.00000  Uiso   1.00
C14    C     0.52798   0.61408   0.88824   0.00000  Uiso   1.00
O15    O     0.47901   0.59483   0.93867   0.00000  Uiso   1.00
O16    O     0.55530   0.70940   0.13848   0.00000  Uiso   1.00
O17    O     0.46316   0.66675   0.15689   0.00000  Uiso   1.00
O18    O     0.42326   0.57259   0.96533   0.00000  Uiso   1.00
O19    O     0.37039   0.54444   1.09862   0.00000  Uiso   1.00
C20    C     0.87492   0.39350   0.81801   0.00000  Uiso   1.00
Er21   Er    0.04606   0.59268  -0.11563   0.00000  Uiso   1.00
Er22   Er    0.98543   0.49977  -0.14816   0.00000  Uiso   1.00
C23    C     0.10383   0.52223  -0.13957   0.00000  Uiso   1.00
O24    O     0.99766   0.50318   0.68570   0.00000  Uiso   1.00
C25    C     0.99837   0.54293   0.08293   0.00000  Uiso   1.00
C26    C     0.92410   0.56610  -0.11659   0.00000  Uiso   1.00
C27    C     0.14364   0.68368   0.91914   0.00000  Uiso   1.00
O28    O     0.86283   0.40826   0.75356   0.00000  Uiso   1.00
O29    O     0.93035   0.40678   0.81829   0.00000  Uiso   1.00
O30    O     0.91418   0.51566  -0.12778   0.00000  Uiso   1.00
O31    O     0.97405   0.60563  -0.10949   0.00000  Uiso   1.00
O32    O     0.97241   0.49799   0.01740   0.00000  Uiso   1.00
O33    O     0.02988   0.58963   0.05179   0.00000  Uiso   1.00
C34    C     0.03198   0.54898   0.65368   0.00000  Uiso   1.00
O35    O     0.06158   0.59272   0.71771   0.00000  Uiso   1.00
O36    O     0.05573   0.48261  -0.16292   0.00000  Uiso   1.00
O37    O     0.11426   0.57382  -0.12301   0.00000  Uiso   1.00
O38    O     0.09836   0.68437   0.92151   0.00000  Uiso   1.00
O39    O     0.13740   0.63354   0.89576   0.00000  Uiso   1.00
C40    C     0.47207   0.20690   1.03817   0.00000  Uiso   1.00
Er41   Er    0.52520   0.06146   0.04660   0.00000  Uiso   1.00
Er42   Er    0.46792   0.10646   0.08442   0.00000  Uiso   1.00
C43    C     0.39042   0.98940   0.05726   0.00000  Uiso   1.00
O44    O     0.46854   0.09276   0.91551   0.00000  Uiso   1.00
C45    C     0.48898   0.09569   0.28469   0.00000  Uiso   1.00
C46    C     0.60335   0.17824   0.06721   0.00000  Uiso   1.00
C47    C     0.55274   1.00019   1.11326   0.00000  Uiso   1.00
O48    O     0.50890   0.19960   0.97928   0.00000  Uiso   1.00
O49    O     0.43796   0.16961   1.10596   0.00000  Uiso   1.00
O50    O     0.55040   0.16111   0.07930   0.00000  Uiso   1.00
O51    O     0.61172   0.13584   0.05089   0.00000  Uiso   1.00
O52    O     0.46448   0.11551   0.25199   0.00000  Uiso   1.00
O53    O     0.51650   0.07220   0.21903   0.00000  Uiso   1.00
C54    C     0.49934   0.07399   0.84957   0.00000  Uiso   1.00
O55    O     0.52852   0.05882   0.88090   0.00000  Uiso   1.00
O56    O     0.38817   0.03616   0.08437   0.00000  Uiso   1.00
O57    O     0.43795   0.98887   0.04038   0.00000  Uiso   1.00
O58    O     0.55566   0.00048   1.01827   0.00000  Uiso   1.00
O59    O     0.53754   1.03532   1.17411   0.00000  Uiso   1.00
C60    C     0.54068   0.62065   0.57142   0.00000  Uiso   1.00
C61    C     0.48863   0.60218   0.63247   0.00000  Uiso   1.00
N62    N     0.44116   0.58424   0.58794   0.00000  Uiso   1.00
C63    C     0.44337   0.58385   0.48503   0.00000  Uiso   1.00
C64    C     0.49563   0.60351   0.42442   0.00000  Uiso   1.00
N65    N     0.54304   0.62148   0.46946   0.00000  Uiso   1.00
N66    N     0.58761   0.63604   0.61439   0.00000  Uiso   1.00
C67    C     0.58496   0.63436   0.71650   0.00000  Uiso   1.00
C68    C     0.53303   0.61655   0.77821   0.00000  Uiso   1.00
N69    N     0.48604   0.60075   0.73428   0.00000  Uiso   1.00
H70    H     0.40501   0.56926   0.45176   0.00000  Uiso   1.00
H71    H     0.62310   0.64689   0.74871   0.00000  Uiso   1.00
C72    C     0.99014   0.52784   0.39293   0.00000  Uiso   1.00
C73    C     0.04078   0.56478   0.34328   0.00000  Uiso   1.00
N74    N     0.08820   0.59377   0.39378   0.00000  Uiso   1.00
C75    C     0.08687   0.58832   0.49259   0.00000  Uiso   1.00
C76    C     0.03618   0.55164   0.54301   0.00000  Uiso   1.00
N77    N     0.98897   0.52226   0.49150   0.00000  Uiso   1.00
N78    N     0.94286   0.49855   0.34211   0.00000  Uiso   1.00
C79    C     0.94413   0.50390   0.24338   0.00000  Uiso   1.00
C80    C    -0.00534   0.54037   0.19304   0.00000  Uiso   1.00
N81    N     0.04181   0.57029   0.24484   0.00000  Uiso   1.00
H82    H     0.12527   0.61233   0.53148   0.00000  Uiso   1.00
H83    H     0.90600   0.47932   0.20349   0.00000  Uiso   1.00
C84    C     0.50937   0.07345   0.52913   0.00000  Uiso   1.00
C85    C     0.47623   0.09385   0.60518   0.00000  Uiso   1.00
N86    N     0.44836   0.11531   0.57583   0.00000  Uiso   1.00
C87    C     0.45234   0.11754   0.47354   0.00000  Uiso   1.00
C88    C     0.48548   0.09711   0.39712   0.00000  Uiso   1.00
N89    N     0.51296   0.07525   0.42702   0.00000  Uiso   1.00
N90    N     0.53735   0.05229   0.55862   0.00000  Uiso   1.00
C91    C     0.53426   0.05102   0.66098   0.00000  Uiso   1.00
C92    C     0.50132   0.07151   0.73741   0.00000  Uiso   1.00
N93    N     0.47318   0.09261   0.70745   0.00000  Uiso   1.00
H94    H     0.42939   0.13470   0.45255   0.00000  Uiso   1.00
H95    H     0.55750   0.03440   0.68192   0.00000  Uiso   1.00
C96    C     0.22883   0.51203  -0.03454   0.00000  Uiso   1.00
C97    C     0.23778   0.52495   0.86601   0.00000  Uiso   1.00
N98    N     0.28919   0.54026   0.81103   0.00000  Uiso   1.00
C99    C     0.33238   0.54547   0.85243   0.00000  Uiso   1.00
C100   C     0.32448   0.53584   0.95434   0.00000  Uiso   1.00
N101   N     0.27246   0.51883   0.00840   0.00000  Uiso   1.00
N102   N     0.17740   0.49669   0.02091   0.00000  Uiso   1.00
C103   C     0.13516   0.49434  -0.01810   0.00000  Uiso   1.00
C104   C     0.14476   0.51017  -0.11459   0.00000  Uiso   1.00
N105   N     0.19594   0.52459   0.82846   0.00000  Uiso   1.00
H106   H     0.37309   0.55905   0.80682   0.00000  Uiso   1.00
H107   H     0.09518   0.48411   0.02911   0.00000  Uiso   1.00
C108   C     0.73725   0.32104   0.96641   0.00000  Uiso   1.00
C109   C     0.74711   0.28808   1.01397   0.00000  Uiso   1.00
N110   N     0.79987   0.29522   0.00647   0.00000  Uiso   1.00
C111   C     0.84263   0.33202   0.94975   0.00000  Uiso   1.00
C112   C     0.83168   0.36089   0.89359   0.00000  Uiso   1.00
N113   N     0.77910   0.35494   0.90439   0.00000  Uiso   1.00
N114   N     0.68446   0.31441   0.97539   0.00000  Uiso   1.00
C115   C     0.64054   0.27372   1.02432   0.00000  Uiso   1.00
C116   C     0.64952   0.23554   0.05712   0.00000  Uiso   1.00
N117   N     0.70288   0.24480   0.05468   0.00000  Uiso   1.00
H118   H     0.88437   0.33676   0.94465   0.00000  Uiso   1.00
H119   H     0.59914   0.26879   1.02751   0.00000  Uiso   1.00
C120   C     0.78362   0.55979  -0.05968   0.00000  Uiso   1.00
C121   C     0.79771   0.61405   0.92891   0.00000  Uiso   1.00
N122   N     0.85070   0.64835   0.89257   0.00000  Uiso   1.00
C123   C     0.89113   0.63213   0.87156   0.00000  Uiso   1.00
C124   C     0.87865   0.57979  -0.10975   0.00000  Uiso   1.00
N125   N     0.82468   0.54408  -0.07802   0.00000  Uiso   1.00
N126   N     0.73079   0.52666  -0.01865   0.00000  Uiso   1.00
C127   C     0.69225   0.54597   0.01176   0.00000  Uiso   1.00
C128   C     0.70606   0.59935   0.99673   0.00000  Uiso   1.00
N129   N     0.75850   0.63211   0.95493   0.00000  Uiso   1.00
H130   H     0.93356   0.66120   0.84538   0.00000  Uiso   1.00
H131   H     0.65248   0.52205   0.05178   0.00000  Uiso   1.00
C132   C     0.29341   0.83579   0.98661   0.00000  Uiso   1.00
C133   C     0.24213   0.83579   0.99456   0.00000  Uiso   1.00
N134   N     0.23988   0.88544   0.02522   0.00000  Uiso   1.00
C135   C     0.28681   0.93542   0.04827   0.00000  Uiso   1.00
C136   C     0.33858   0.93581   0.03920   0.00000  Uiso   1.00
N137   N     0.34046   0.88572   1.00869   0.00000  Uiso   1.00
N138   N     0.29519   0.78579   0.95634   0.00000  Uiso   1.00
C139   C     0.24777   0.73577   0.93368   0.00000  Uiso   1.00
C140   C     0.19645   0.73576   0.94103   0.00000  Uiso   1.00
N141   N     0.19527   0.78609   0.97136   0.00000  Uiso   1.00
H142   H     0.28394  -0.02558   0.06886   0.00000  Uiso   1.00
H143   H     0.25042   0.69657   0.90735   0.00000  Uiso   1.00
C144   C     0.51407   0.87001   1.19752   0.00000  Uiso   1.00
C145   C     0.56147   0.86216   1.15434   0.00000  Uiso   1.00
N146   N     0.60715   0.90357   1.11204   0.00000  Uiso   1.00
C147   C     0.60681   0.95107   1.10626   0.00000  Uiso   1.00
C148   C     0.55956   0.95860   1.14601   0.00000  Uiso   1.00
N149   N     0.51415   0.91818   1.19271   0.00000  Uiso   1.00
N150   N     0.46711   0.82672   0.23361   0.00000  Uiso   1.00
C151   C     0.46484   0.77595   0.22667   0.00000  Uiso   1.00
C152   C     0.51177   0.76776   0.18185   0.00000  Uiso   1.00
N153   N     0.55922   0.81159   0.14785   0.00000  Uiso   1.00
H154   H     0.64232   0.98125   1.06387   0.00000  Uiso   1.00
H155   H     0.42607   0.74225   0.25441   0.00000  Uiso   1.00
C156   C     0.45894   0.35129   0.04457   0.00000  Uiso   1.00
C157   C     0.50606   0.34515   0.99114   0.00000  Uiso   1.00
N158   N     0.54905   0.38718   0.94495   0.00000  Uiso   1.00
C159   C     0.54809   0.43616   0.95241   0.00000  Uiso   1.00
C160   C     0.50260   0.44397   0.01050   0.00000  Uiso   1.00
N161   N     0.45837   0.40065   0.05308   0.00000  Uiso   1.00
N162   N     0.41583   0.30872   0.09042   0.00000  Uiso   1.00
C163   C     0.41842   0.26090   1.08702   0.00000  Uiso   1.00
C164   C     0.46627   0.25621   1.03859   0.00000  Uiso   1.00
N165   N     0.50863   0.29803   0.99002   0.00000  Uiso   1.00
H166   H     0.58384   0.47015   0.91801   0.00000  Uiso   1.00
H167   H     0.38334   0.22647   0.12095   0.00000  Uiso   1.00
loop_
_geom_bond_atom_site_label_1
_geom_bond_atom_site_label_2
_geom_bond_distance
_geom_bond_site_symmetry_2
_ccdc_geom_bond_type
C0     O8      1.225   .     D
C0     O9      1.408   .     S
C0     C128    1.465   .     S
Er1    O11     2.170   .     S
Er1    O13     2.167   .     S
Er1    O17     2.159   .     S
Er1    O15     2.209   1_554 S
Er1    O18     2.191   1_554 S
Er1    O19     2.201   1_554 S
Er2    O10     2.193   .     S
Er2    O12     2.170   .     S
Er2    O16     2.184   .     S
Er2    O4      2.170   1_554 S
Er2    O9      2.217   1_554 S
C3     O16     1.265   .     A
C3     O17     1.272   .     A
C3     C152    1.473   .     S
O4     C14     1.268   .     A
O4     Er2     2.170   1_556 S
C5     O12     1.270   .     A
C5     O13     1.269   .     A
C5     C64     1.465   .     S
C6     O10     1.285   .     A
C6     O11     1.272   .     A
C6     C160    1.470   .     S
C7     O18     1.268   .     A
C7     O19     1.267   .     A
C7     C100    1.474   .     S
O9     Er2     2.217   1_556 S
C14    O15     1.282   .     A
C14    C68     1.461   .     S
O15    Er1     2.209   1_556 S
O18    Er1     2.191   1_556 S
O19    Er1     2.201   1_556 S
C20    O28     1.221   .     D
C20    O29     1.388   .     S
C20    C112    1.470   .     S
Er21   O33     2.195   .     S
Er21   O37     2.180   .     S
Er21   O31     2.182   1_455 S
Er21   O35     2.168   1_554 S
Er21   O38     2.182   1_554 S
Er21   O39     2.214   1_554 S
Er22   O30     2.179   .     S
Er22   O32     2.168   .     S
Er22   O24     2.188   1_554 S
Er22   O29     2.219   1_554 S
Er22   O36     2.186   1_655 S
C23    O36     1.266   .     A
C23    O37     1.279   .     A
C23    C104    1.460   .     S
O24    Er22    2.188   1_556 S
O24    C34     1.274   1_655 A
C25    O32     1.267   .     A
C25    O33     1.278   1_655 A
C25    C80     1.469   1_655 S
C26    O30     1.260   .     A
C26    O31     1.266   .     A
C26    C124    1.468   .     S
C27    O38     1.258   .     A
C27    O39     1.272   .     A
C27    C140    1.466   .     S
O29    Er22    2.219   1_556 S
O31    Er21    2.182   1_655 S
O33    C25     1.278   1_455 A
C34    O35     1.268   .     A
C34    C76     1.475   .     S
C34    O24     1.274   1_455 A
O35    Er21    2.168   1_556 S
O36    Er22    2.186   1_455 S
O38    Er21    2.182   1_556 S
O39    Er21    2.214   1_556 S
C40    O48     1.208   .     D
C40    O49     1.398   .     S
C40    C164    1.462   .     S
Er41   O51     2.246   .     S
Er41   O53     2.208   .     S
Er41   O55     2.174   1_554 S
Er41   O57     2.240   1_545 S
Er41   O58     2.166   1_554 S
Er41   O59     2.182   1_544 S
Er42   O50     2.008   .     S
Er42   O52     2.164   .     S
Er42   O56     2.090   .     S
Er42   O44     2.174   1_554 S
Er42   O49     2.227   1_554 S
C43    O57     1.293   .     A
C43    C136    1.465   .     S
C43    O56     1.281   1_565 A
O44    C54     1.277   .     A
O44    Er42    2.174   1_556 S
C45    O52     1.267   .     A
C45    O53     1.287   .     A
C45    C88     1.472   .     S
C46    O50     1.280   .     A
C46    O51     1.269   .     A
C46    C116    1.482   .     S
C47    O59     1.268   .     A
C47    C148    1.456   .     S
C47    O58     1.254   1_565 A
O49    Er42    2.227   1_556 S
C54    O55     1.267   .     A
C54    C92     1.468   .     S
O55    Er41    2.174   1_556 S
O56    C43     1.281   1_545 A
O57    Er41    2.240   1_565 S
O58    Er41    2.166   1_556 S
O58    C47     1.254   1_545 A
O59    Er41    2.182   1_566 S
C60    C61     1.404   .     A
C60    N65     1.354   .     A
C60    N66     1.356   .     A
C61    N62     1.362   .     A
C61    N69     1.355   .     A
N62    C63     1.358   .     A
C63    C64     1.406   .     A
C63    H70     1.080   .     S
C64    N65     1.364   .     A
N66    C67     1.361   .     A
C67    C68     1.406   .     A
C67    H71     1.082   .     S
C68    N69     1.361   .     A
C72    N77     1.359   .     A
C72    N78     1.361   .     A
C72    C73     1.409   1_655 A
C73    N74     1.361   .     A
C73    N81     1.358   .     A
C73    C72     1.409   1_455 A
N74    C75     1.360   .     A
C75    C76     1.411   .     A
C75    H82     1.088   .     S
C76    N77     1.364   1_455 A
N77    C76     1.364   1_655 A
N78    C79     1.358   .     A
C79    H83     1.089   .     S
C79    C80     1.406   1_655 A
C80    N81     1.365   .     A
C80    C79     1.406   1_455 A
C80    C25     1.469   1_455 S
C84    C85     1.407   .     A
C84    N89     1.357   .     A
C84    N90     1.355   .     A
C85    N86     1.358   .     A
C85    N93     1.358   .     A
N86    C87     1.361   .     A
C87    C88     1.409   .     A
C87    H94     1.084   .     S
C88    N89     1.362   .     A
N90    C91     1.359   .     A
C91    C92     1.406   .     A
C91    H95     1.079   .     S
C92    N93     1.361   .     A
C96    N101    1.358   .     A
C96    N102    1.362   .     A
C96    C97     1.409   1_554 A
C97    N98     1.359   .     A
C97    N105    1.357   .     A
C97    C96     1.409   1_556 A
N98    C99     1.355   .     A
C99    C100    1.409   .     A
C99    H106    1.086   .     S
C100   N101    1.365   1_556 A
N101   C100    1.365   1_554 A
N102   C103    1.350   .     A
C103   C104    1.405   .     A
C103   H107    1.084   .     S
C104   N105    1.366   1_554 A
N105   C104    1.366   1_556 A
C108   C109    1.409   .     A
C108   N113    1.354   .     A
C108   N114    1.360   .     A
C109   N110    1.357   1_556 A
C109   N117    1.356   1_556 A
N110   C109    1.357   1_554 A
N110   C111    1.358   1_554 A
C111   C112    1.412   .     A
C111   H118    1.085   .     S
C111   N110    1.358   1_556 A
C112   N113    1.360   .     A
N114   C115    1.367   .     A
C115   H119    1.077   .     S
C115   C116    1.404   1_556 A
C116   N117    1.361   .     A
C116   C115    1.404   1_554 A
N117   C109    1.356   1_554 A
C120   N125    1.365   .     A
C120   N126    1.365   .     A
C120   C121    1.406   1_554 A
C121   N122    1.355   .     A
C121   N129    1.356   .     A
C121   C120    1.406   1_556 A
N122   C123    1.356   .     A
C123   H130    1.086   .     S
C123   C124    1.405   1_556 A
C124   N125    1.365   .     A
C124   C123    1.405   1_554 A
N126   C127    1.363   .     A
C127   H131    1.069   .     S
C127   C128    1.402   1_554 A
C128   N129    1.359   .     A
C128   C127    1.402   1_556 A
C132   C133    1.401   .     A
C132   N137    1.356   .     A
C132   N138    1.362   .     A
C133   N141    1.352   .     A
C133   N134    1.359   1_556 A
N134   C135    1.357   .     A
N134   C133    1.359   1_554 A
C135   C136    1.407   .     A
C135   H142    1.084   1_565 S
C136   N137    1.365   1_554 A
N137   C136    1.365   1_556 A
N138   C139    1.363   .     A
C139   C140    1.404   .     A
C139   H143    1.085   .     S
C140   N141    1.362   .     A
H142   C135    1.084   1_545 S
C144   C145    1.409   .     A
C144   N149    1.363   .     A
C144   N150    1.360   1_556 A
C145   N146    1.354   .     A
C145   N153    1.360   1_556 A
N146   C147    1.355   .     A
C147   C148    1.394   .     A
C147   H154    1.088   .     S
C148   N149    1.364   .     A
N150   C151    1.363   .     A
N150   C144    1.360   1_554 A
C151   C152    1.406   .     A
C151   H155    1.085   .     S
C152   N153    1.363   .     A
N153   C145    1.360   1_554 A
C156   N161    1.358   .     A
C156   N162    1.367   .     A
C156   C157    1.408   1_554 A
C157   N158    1.359   .     A
C157   N165    1.348   .     A
C157   C156    1.408   1_556 A
N158   C159    1.356   .     A
C159   H166    1.090   .     S
C159   C160    1.407   1_556 A
C160   N161    1.368   .     A
C160   C159    1.407   1_554 A
N162   C163    1.360   1_554 A
C163   C164    1.392   .     A
C163   N162    1.360   1_556 A
C163   H167    1.087   1_556 S
C164   N165    1.367   .     A
H167   C163    1.087   1_554 S
