data_kag+N144+E191
_audit_creation_date              2025-01-21
_audit_creation_method            'Materials Studio'
_symmetry_space_group_name_H-M    'P1'
_symmetry_Int_Tables_number       1
_symmetry_cell_setting            triclinic
loop_
_symmetry_equiv_pos_as_xyz
  x,y,z
_cell_length_a                    36.5696
_cell_length_b                    36.9116
_cell_length_c                    17.8205
_cell_angle_alpha                 86.8109
_cell_angle_beta                  92.0277
_cell_angle_gamma                 119.9207
loop_
_atom_site_label
_atom_site_type_symbol
_atom_site_fract_x
_atom_site_fract_y
_atom_site_fract_z
_atom_site_U_iso_or_equiv
_atom_site_adp_type
_atom_site_occupancy
C0     C     0.65455   0.61415   0.97544   0.00000  Uiso   1.00
Er1    Er    0.49311   0.55417   0.03461   0.00000  Uiso   1.00
Er2    Er    0.56328   0.58124   0.03469   0.00000  Uiso   1.00
C3     C     0.54035   0.64920   0.02089   0.00000  Uiso   1.00
O4     O     0.56048   0.57741   0.91336   0.00000  Uiso   1.00
C5     C     0.53196   0.57028   0.19221   0.00000  Uiso   1.00
C6     C     0.51610   0.48618   0.04387   0.00000  Uiso   1.00
C7     C     0.41602   0.52711   0.98123   0.00000  Uiso   1.00
O8     O     0.64413   0.62736   0.91947   0.00000  Uiso   1.00
O9     O     0.63243   0.60550   1.04212   0.00000  Uiso   1.00
O10    O     0.55298   0.51797   0.04598   0.00000  Uiso   1.00
O11    O     0.48419   0.49135   0.03891   0.00000  Uiso   1.00
O12    O     0.56597   0.58492   0.15600   0.00000  Uiso   1.00
O13    O     0.49727   0.55497   0.15639   0.00000  Uiso   1.00
C14    C     0.52623   0.56552   0.87654   0.00000  Uiso   1.00
O15    O     0.49202   0.55419   0.91167   0.00000  Uiso   1.00
O16    O     0.57221   0.64394   0.02193   0.00000  Uiso   1.00
O17    O     0.50349   0.61759   0.02866   0.00000  Uiso   1.00
O18    O     0.44785   0.54006   0.93920   0.00000  Uiso   1.00
O19    O     0.42586   0.52799   1.04942   0.00000  Uiso   1.00
C20    C     0.94228   0.42279   0.97723   0.00000  Uiso   1.00
Er21   Er    0.04896   0.58236   0.02967   0.00000  Uiso   1.00
Er22   Er    1.00479   0.51296   0.03222   0.00000  Uiso   1.00
C23    C     0.09599   0.53421   0.02960   0.00000  Uiso   1.00
O24    O     0.00433   0.51642   0.91030   0.00000  Uiso   1.00
C25    C     0.02523   0.54381   0.18895   0.00000  Uiso   1.00
C26    C     0.95800   0.56163   0.02333   0.00000  Uiso   1.00
C27    C     0.09919   0.65896   0.97512   0.00000  Uiso   1.00
O28    O     0.96129   0.43540   0.91823   0.00000  Uiso   1.00
O29    O     0.95986   0.44426   1.04260   0.00000  Uiso   1.00
O30    O     0.95202   0.52454   0.03098   0.00000  Uiso   1.00
O31    O     0.99543   0.59249   0.02161   0.00000  Uiso   1.00
O32    O     1.00542   0.51014   0.15430   0.00000  Uiso   1.00
O33    O     0.04533   0.57809   0.15143   0.00000  Uiso   1.00
C34    C     0.02736   0.55024   0.87258   0.00000  Uiso   1.00
O35    O     0.05063   0.58391   0.90687   0.00000  Uiso   1.00
O36    O     0.05858   0.50306   0.03007   0.00000  Uiso   1.00
O37    O     0.10173   0.57095   0.03480   0.00000  Uiso   1.00
O38    O     0.09027   0.64879   1.04303   0.00000  Uiso   1.00
O39    O     0.08045   0.62770   0.93391   0.00000  Uiso   1.00
C40    C     0.49324   0.15072   0.96082   0.00000  Uiso   1.00
Er41   Er    0.52017   0.02726   0.02213   0.00000  Uiso   1.00
Er42   Er    0.49362   0.07061   0.01262   0.00000  Uiso   1.00
C43    C     0.42466   0.98011   0.01260   0.00000  Uiso   1.00
O44    O     0.49676   0.07034   0.89129   0.00000  Uiso   1.00
C45    C     0.50369   0.05054   0.17448   0.00000  Uiso   1.00
C46    C     0.58957   0.11740   0.01606   0.00000  Uiso   1.00
C47    C     0.54696   0.97729   0.97964   0.00000  Uiso   1.00
O48    O     0.51693   0.15064   0.91453   0.00000  Uiso   1.00
O49    O     0.46822   0.11439   1.00410   0.00000  Uiso   1.00
O50    O     0.55793   0.12300   0.01599   0.00000  Uiso   1.00
O51    O     0.58370   0.08038   0.01849   0.00000  Uiso   1.00
O52    O     0.48977   0.07042   0.13398   0.00000  Uiso   1.00
O53    O     0.51875   0.03095   0.14300   0.00000  Uiso   1.00
C54    C     0.50860   0.04800   0.85937   0.00000  Uiso   1.00
O55    O     0.52031   0.02570   0.89945   0.00000  Uiso   1.00
O56    O     0.43020   0.01707   0.00772   0.00000  Uiso   1.00
O57    O     0.45624   0.97476   0.02352   0.00000  Uiso   1.00
O58    O     0.54577   0.98600   1.04616   0.00000  Uiso   1.00
O59    O     0.53453   0.99642   0.93343   0.00000  Uiso   1.00
Ni60   Ni    0.52997   0.56828   0.53435   0.00000  Uiso   1.00
C61    C     0.53212   0.57062   0.27519   0.00000  Uiso   1.00
C62    C     0.49386   0.55331   0.31410   0.00000  Uiso   1.00
C63    C     0.49419   0.55322   0.39238   0.00000  Uiso   1.00
C64    C     0.56890   0.58701   0.39509   0.00000  Uiso   1.00
C65    C     0.57006   0.58775   0.31660   0.00000  Uiso   1.00
H66    H     0.45934   0.54123   0.77787   0.00000  Uiso   1.00
H67    H     0.59413   0.58932   0.78621   0.00000  Uiso   1.00
H68    H     0.59412   0.59002   0.64800   0.00000  Uiso   1.00
H69    H     0.46248   0.54293   0.63939   0.00000  Uiso   1.00
N70    N     0.52841   0.56666   0.63764   0.00000  Uiso   1.00
N71    N     0.53130   0.56978   0.43106   0.00000  Uiso   1.00
H72    H     0.46389   0.53979   0.28442   0.00000  Uiso   1.00
H73    H     0.46480   0.53977   0.42258   0.00000  Uiso   1.00
H74    H     0.59797   0.60003   0.42742   0.00000  Uiso   1.00
H75    H     0.60021   0.60145   0.28873   0.00000  Uiso   1.00
C76    C     0.52659   0.56530   0.79352   0.00000  Uiso   1.00
C77    C     0.56468   0.57891   0.75569   0.00000  Uiso   1.00
C78    C     0.56486   0.57938   0.67736   0.00000  Uiso   1.00
C79    C     0.49101   0.55298   0.67257   0.00000  Uiso   1.00
C80    C     0.48935   0.55205   0.75098   0.00000  Uiso   1.00
Ni81   Ni    0.02556   0.54633   0.53085   0.00000  Uiso   1.00
C82    C     0.02690   0.54991   0.78957   0.00000  Uiso   1.00
C83    C     0.99906   0.51322   0.75281   0.00000  Uiso   1.00
C84    C     0.99920   0.51296   0.67459   0.00000  Uiso   1.00
C85    C     0.05343   0.58402   0.66777   0.00000  Uiso   1.00
C86    C     0.05433   0.58571   0.74607   0.00000  Uiso   1.00
H87    H     0.98388   0.47672   0.28923   0.00000  Uiso   1.00
H88    H     0.06618   0.61098   0.27762   0.00000  Uiso   1.00
H89    H     0.06520   0.61035   0.41570   0.00000  Uiso   1.00
H90    H     0.98481   0.47922   0.42772   0.00000  Uiso   1.00
N91    N     0.02508   0.54487   0.42775   0.00000  Uiso   1.00
N92    N     0.02617   0.54800   0.63392   0.00000  Uiso   1.00
H93    H     0.97731   0.48492   0.78408   0.00000  Uiso   1.00
H94    H     0.97784   0.48478   0.64608   0.00000  Uiso   1.00
H95    H     0.07455   0.61142   0.63385   0.00000  Uiso   1.00
H96    H     0.07637   0.61456   0.77218   0.00000  Uiso   1.00
C97    C     0.02508   0.54372   0.27201   0.00000  Uiso   1.00
C98    C     0.04803   0.58151   0.30887   0.00000  Uiso   1.00
C99    C     0.04758   0.58133   0.38711   0.00000  Uiso   1.00
C100   C     1.00249   0.50776   0.39383   0.00000  Uiso   1.00
C101   C     1.00206   0.50647   0.31546   0.00000  Uiso   1.00
Ni102  Ni    0.50390   0.04768   0.51695   0.00000  Uiso   1.00
C103   C     0.50275   0.04969   0.25754   0.00000  Uiso   1.00
C104   C     0.51826   0.02707   0.30051   0.00000  Uiso   1.00
C105   C     0.51782   0.02668   0.37875   0.00000  Uiso   1.00
C106   C     0.48682   0.06990   0.37367   0.00000  Uiso   1.00
C107   C     0.48665   0.07116   0.29500   0.00000  Uiso   1.00
H108   H     0.52789   0.00160   0.76965   0.00000  Uiso   1.00
H109   H     0.48812   0.09426   0.75992   0.00000  Uiso   1.00
H110   H     0.48638   0.09277   0.62194   0.00000  Uiso   1.00
H111   H     0.52523   0.00229   0.63085   0.00000  Uiso   1.00
N112   N     0.50560   0.04747   0.62032   0.00000  Uiso   1.00
N113   N     0.50243   0.04801   0.41357   0.00000  Uiso   1.00
H114   H     0.53081   0.00992   0.27401   0.00000  Uiso   1.00
H115   H     0.52999   0.00952   0.41197   0.00000  Uiso   1.00
H116   H     0.47472   0.08655   0.40299   0.00000  Uiso   1.00
H117   H     0.47426   0.08882   0.26396   0.00000  Uiso   1.00
C118   C     0.50823   0.04796   0.77628   0.00000  Uiso   1.00
C119   C     0.49649   0.07374   0.73338   0.00000  Uiso   1.00
C120   C     0.49540   0.07299   0.65515   0.00000  Uiso   1.00
C121   C     0.51722   0.02225   0.66017   0.00000  Uiso   1.00
C122   C     0.51877   0.02200   0.73875   0.00000  Uiso   1.00
Ni123  Ni    0.24705   0.51344   0.96480   0.00000  Uiso   1.00
C124   C     0.37262   0.51478   0.95740   0.00000  Uiso   1.00
C125   C     0.36449   0.53903   0.90337   0.00000  Uiso   1.00
C126   C     0.32450   0.53563   0.90075   0.00000  Uiso   1.00
C127   C     0.30007   0.48206   0.99704   0.00000  Uiso   1.00
C128   C     0.33943   0.48479   1.00220   0.00000  Uiso   1.00
H129   H     0.17932   0.59426   0.02339   0.00000  Uiso   1.00
H130   H     0.09588   0.46097   0.00789   0.00000  Uiso   1.00
H131   H     0.15761   0.45411  -0.02173   0.00000  Uiso   1.00
H132   H     0.23887   0.58436  -0.00659   0.00000  Uiso   1.00
N133   N     0.20087   0.51899  -0.01660   0.00000  Uiso   1.00
N134   N     0.29392   0.50855   0.94935   0.00000  Uiso   1.00
H135   H     0.38968   0.56304   0.86905   0.00000  Uiso   1.00
H136   H     0.31890   0.55672   0.86396   0.00000  Uiso   1.00
H137   H     0.27536   0.46120   1.03551   0.00000  Uiso   1.00
H138   H     0.34484   0.46593   1.04503   0.00000  Uiso   1.00
C139   C     0.13259   0.52827   0.01858   0.00000  Uiso   1.00
C140   C     0.12693   0.48856   0.00565   0.00000  Uiso   1.00
C141   C     0.16174   0.48459  -0.01188   0.00000  Uiso   1.00
C142   C     0.20731   0.55765  -0.00340   0.00000  Uiso   1.00
C143   C     0.17351   0.56305   0.01429   0.00000  Uiso   1.00
Ni144  Ni    0.76764   0.26743   0.99423   0.00000  Uiso   1.00
C145   C     0.90069   0.38402   0.98092   0.00000  Uiso   1.00
C146   C     0.87860   0.37044   1.04898   0.00000  Uiso   1.00
C147   C     0.83870   0.33476   1.05155   0.00000  Uiso   1.00
C148   C     0.84191   0.32519   0.92201   0.00000  Uiso   1.00
C149   C     0.88198   0.36079   0.91684   0.00000  Uiso   1.00
H150   H     0.61328   0.20057   0.00605   0.00000  Uiso   1.00
H151   H     0.66428   0.11690   1.01549   0.00000  Uiso   1.00
H152   H     0.73575   0.17847   1.00573   0.00000  Uiso   1.00
H153   H     0.68588   0.26016  -0.00343   0.00000  Uiso   1.00
N154   N     0.71397   0.22198   1.00054   0.00000  Uiso   1.00
N155   N     0.82117   0.31313   0.98861   0.00000  Uiso   1.00
H156   H     0.89173   0.38744   1.09969   0.00000  Uiso   1.00
H157   H     0.82138   0.32446   1.10367   0.00000  Uiso   1.00
H158   H     0.82713   0.30738   0.87278   0.00000  Uiso   1.00
H159   H     0.89792   0.37024   0.86326   0.00000  Uiso   1.00
C160   C     0.63286   0.15375   0.01201   0.00000  Uiso   1.00
C161   C     0.66803   0.14795   1.01166   0.00000  Uiso   1.00
C162   C     0.70855   0.18273   1.00591   0.00000  Uiso   1.00
C163   C     0.68056   0.22855   0.00078   0.00000  Uiso   1.00
C164   C     0.63951   0.19470   0.00643   0.00000  Uiso   1.00
Ni165  Ni    0.80790   0.59031   0.98647   0.00000  Uiso   1.00
C166   C     0.92167   0.56877   0.01473   0.00000  Uiso   1.00
C167   C     0.92806   0.60943   0.00154   0.00000  Uiso   1.00
C168   C     0.89329   0.61537  -0.00820   0.00000  Uiso   1.00
C169   C     0.84639   0.54236   0.00731   0.00000  Uiso   1.00
C170   C     0.88019   0.53497   0.01730   0.00000  Uiso   1.00
H171   H     0.72171   0.64966   0.87758   0.00000  Uiso   1.00
H172   H     0.67185   0.56565   1.07323   0.00000  Uiso   1.00
H173   H     0.73444   0.55719   1.07496   0.00000  Uiso   1.00
H174   H     0.78375   0.63946   0.88411   0.00000  Uiso   1.00
N175   N     0.76178   0.59783   0.97981   0.00000  Uiso   1.00
N176   N     0.85351   0.58202  -0.00509   0.00000  Uiso   1.00
H177   H     0.95954   0.63634  -0.00137   0.00000  Uiso   1.00
H178   H     0.89798   0.64660  -0.01777   0.00000  Uiso   1.00
H179   H     0.81435   0.51648   1.00996   0.00000  Uiso   1.00
H180   H     0.87387   0.50314   0.02700   0.00000  Uiso   1.00
C181   C     0.69175   0.60845   0.97513   0.00000  Uiso   1.00
C182   C     0.69584   0.58231   1.03092   0.00000  Uiso   1.00
C183   C     0.73116   0.57731   1.03204   0.00000  Uiso   1.00
C184   C     0.75876   0.62332   0.92477   0.00000  Uiso   1.00
C185   C     0.72358   0.62895   0.92109   0.00000  Uiso   1.00
Ni186  Ni    0.25257   0.82793   0.95448   0.00000  Uiso   1.00
C187   C     0.38217   0.94344   0.00215   0.00000  Uiso   1.00
C188   C     0.37674   0.90293   0.00595   0.00000  Uiso   1.00
C189   C     0.33732   0.86880  -0.00987   0.00000  Uiso   1.00
C190   C     0.30825   0.91325   0.96775   0.00000  Uiso   1.00
C191   C     0.34725   0.94841   0.98310   0.00000  Uiso   1.00
H192   H     0.16013   0.68580  -0.13265   0.00000  Uiso   1.00
H193   H     0.10951   0.72910   1.03366   0.00000  Uiso   1.00
H194   H     0.17326   0.79841   1.02278   0.00000  Uiso   1.00
H195   H     0.22358   0.75641  -0.13937   0.00000  Uiso   1.00
N196   N     0.20107   0.78064   0.94096   0.00000  Uiso   1.00
N197   N     0.30421   0.87451  -0.02903   0.00000  Uiso   1.00
H198   H     0.40279   0.89765   0.02015   0.00000  Uiso   1.00
H199   H     0.33298   0.83754  -0.00682   0.00000  Uiso   1.00
H200   H     0.28119   0.91680   0.95326   0.00000  Uiso   1.00
H201   H     0.35014   0.97911   0.97916   0.00000  Uiso   1.00
C202   C     0.12985   0.70212   0.95091   0.00000  Uiso   1.00
C203   C     0.13318   0.73476   0.99267   0.00000  Uiso   1.00
C204   C     0.16922   0.77404   0.98665   0.00000  Uiso   1.00
C205   C     0.19739   0.75046   0.89557   0.00000  Uiso   1.00
C206   C     0.16141   0.71057   0.89917   0.00000  Uiso   1.00
Ni207  Ni    0.56067   0.82281   0.96613   0.00000  Uiso   1.00
C208   C     0.55894   0.94621   0.96171   0.00000  Uiso   1.00
C209   C     0.53883   0.91869   0.90357   0.00000  Uiso   1.00
C210   C     0.54220   0.88254   0.90167   0.00000  Uiso   1.00
C211   C     0.58770   0.90276   0.00818   0.00000  Uiso   1.00
C212   C     0.58487   0.93881   1.01264   0.00000  Uiso   1.00
H213   H     0.61426   0.72420   1.00458   0.00000  Uiso   1.00
H214   H     0.47872   0.67060   0.00833   0.00000  Uiso   1.00
H215   H     0.48870   0.74127  -0.01620   0.00000  Uiso   1.00
H216   H     0.62112   0.79387   0.98030   0.00000  Uiso   1.00
N217   N     0.55522   0.77056  -0.02013   0.00000  Uiso   1.00
N218   N     0.56534   0.87482   0.95504   0.00000  Uiso   1.00
H219   H     0.51808   0.92322   0.86415   0.00000  Uiso   1.00
H220   H     0.52428   0.85943   0.86061   0.00000  Uiso   1.00
H221   H     0.60546   0.89557   0.05029   0.00000  Uiso   1.00
H222   H     0.60069   0.95938   0.05841   0.00000  Uiso   1.00
C223   C     0.54579   0.69160   0.00868   0.00000  Uiso   1.00
C224   C     0.51038   0.69699   0.00246   0.00000  Uiso   1.00
C225   C     0.51586   0.73693  -0.01198   0.00000  Uiso   1.00
C226   C     0.59015   0.76644   0.98600   0.00000  Uiso   1.00
C227   C     0.58614   0.72697   1.00028   0.00000  Uiso   1.00
Ni228  Ni    0.49715   0.31399   1.01703   0.00000  Uiso   1.00
C229   C     0.51076   0.44369   0.04489   0.00000  Uiso   1.00
C230   C     0.54631   0.43852   1.04551   0.00000  Uiso   1.00
C231   C     0.54107   0.39866   1.03987   0.00000  Uiso   1.00
C232   C     0.46670   0.36865   0.03551   0.00000  Uiso   1.00
C233   C     0.47047   0.40804   0.04103   0.00000  Uiso   1.00
H234   H     0.53387   0.22536   0.87993   0.00000  Uiso   1.00
H235   H     0.45033   0.16446   1.06844   0.00000  Uiso   1.00
H236   H     0.45275   0.23117   1.09000   0.00000  Uiso   1.00
H237   H     0.53424   0.29043   0.90560   0.00000  Uiso   1.00
N238   N     0.49349   0.26369   0.99865   0.00000  Uiso   1.00
N239   N     0.50181   0.36488   1.03400   0.00000  Uiso   1.00
H240   H     0.57794   0.46513   1.04821   0.00000  Uiso   1.00
H241   H     0.56841   0.39470   1.03810   0.00000  Uiso   1.00
H242   H     0.43584   0.34120   0.03053   0.00000  Uiso   1.00
H243   H     0.44226   0.41066   0.04041   0.00000  Uiso   1.00
C244   C     0.49191   0.18945   0.97214   0.00000  Uiso   1.00
C245   C     0.46866   0.19147   1.03131   0.00000  Uiso   1.00
C246   C     0.46999   0.22921   1.04377   0.00000  Uiso   1.00
C247   C     0.51575   0.26243   0.94036   0.00000  Uiso   1.00
C248   C     0.51544   0.22550   0.92604   0.00000  Uiso   1.00
loop_
_geom_bond_atom_site_label_1
_geom_bond_atom_site_label_2
_geom_bond_distance
_geom_bond_site_symmetry_2
_ccdc_geom_bond_type
C0     O8      1.218   .     D
C0     O9      1.392   .     S
C0     C181    1.477   .     S
Er1    O11     2.171   .     S
Er1    O13     2.171   .     S
Er1    O17     2.174   .     S
Er1    O15     2.190   1_554 S
Er1    O18     2.223   1_554 S
Er1    O19     2.168   1_554 S
Er2    O10     2.171   .     S
Er2    O12     2.169   .     S
Er2    O16     2.169   .     S
Er2    O4      2.170   1_554 S
Er2    O9      2.224   1_554 S
C3     O16     1.273   .     A
C3     O17     1.274   .     A
C3     C223    1.480   .     S
O4     C14     1.272   .     A
O4     Er2     2.170   1_556 S
C5     O12     1.266   .     A
C5     O13     1.266   .     A
C5     C61     1.479   .     S
C6     O10     1.273   .     A
C6     O11     1.272   .     A
C6     C229    1.480   .     S
C7     O18     1.269   .     A
C7     O19     1.252   .     A
C7     C124    1.470   .     S
O9     Er2     2.224   1_556 S
C14    O15     1.279   .     A
C14    C76     1.480   .     S
O15    Er1     2.190   1_556 S
O18    Er1     2.223   1_556 S
O19    Er1     2.168   1_556 S
C20    O28     1.216   .     D
C20    O29     1.393   .     S
C20    C145    1.480   .     S
Er21   O33     2.171   .     S
Er21   O37     2.169   .     S
Er21   O31     2.167   1_455 S
Er21   O35     2.188   1_554 S
Er21   O38     2.167   1_554 S
Er21   O39     2.222   1_554 S
Er22   O30     2.174   .     S
Er22   O32     2.172   .     S
Er22   O24     2.169   1_654 S
Er22   O29     2.231   1_554 S
Er22   O36     2.175   1_655 S
C23    O36     1.274   .     A
C23    O37     1.273   .     A
C23    C139    1.481   .     S
O24    C34     1.272   .     A
O24    Er22    2.169   1_456 S
C25    O33     1.265   .     A
C25    C97     1.480   .     S
C25    O32     1.267   1_455 A
C26    O30     1.274   .     A
C26    O31     1.271   .     A
C26    C166    1.479   .     S
C27    O38     1.252   .     A
C27    O39     1.269   .     A
C27    C202    1.469   .     S
O29    Er22    2.231   1_556 S
O31    Er21    2.167   1_655 S
O32    C25     1.267   1_655 A
C34    O35     1.278   .     A
C34    C82     1.480   .     S
O35    Er21    2.188   1_556 S
O36    Er22    2.175   1_455 S
O38    Er21    2.167   1_556 S
O39    Er21    2.222   1_556 S
C40    O48     1.218   .     D
C40    O49     1.393   .     S
C40    C244    1.480   .     S
Er41   O51     2.167   .     S
Er41   O53     2.170   .     S
Er41   O55     2.190   1_554 S
Er41   O57     2.168   1_545 S
Er41   O58     2.168   1_544 S
Er41   O59     2.219   1_544 S
Er42   O50     2.177   .     S
Er42   O52     2.172   .     S
Er42   O56     2.174   .     S
Er42   O44     2.170   1_554 S
Er42   O49     2.226   1_554 S
C43    O57     1.272   .     A
C43    C187    1.480   .     S
C43    O56     1.274   1_565 A
O44    C54     1.272   .     A
O44    Er42    2.170   1_556 S
C45    O52     1.268   .     A
C45    O53     1.267   .     A
C45    C103    1.480   .     S
C46    O50     1.273   .     A
C46    O51     1.271   .     A
C46    C160    1.480   .     S
C47    O58     1.253   .     A
C47    O59     1.270   .     A
C47    C208    1.470   .     S
O49    Er42    2.226   1_556 S
C54    O55     1.279   .     A
C54    C118    1.480   .     S
O55    Er41    2.190   1_556 S
O56    C43     1.274   1_545 A
O57    Er41    2.168   1_565 S
O58    Er41    2.168   1_566 S
O59    Er41    2.219   1_566 S
Ni60   N70     1.840   .     S
Ni60   N71     1.840   .     S
C61    C62     1.405   .     A
C61    C65     1.405   .     A
C62    C63     1.394   .     A
C62    H72     1.083   .     S
C63    N71     1.358   .     A
C63    H73     1.082   .     S
C64    C65     1.399   .     A
C64    N71     1.360   .     A
C64    H74     1.082   .     S
C65    H75     1.083   .     S
H66    C80     1.083   .     S
H67    C77     1.083   .     S
H68    C78     1.082   .     S
H69    C79     1.082   .     S
N70    C78     1.358   .     A
N70    C79     1.360   .     A
C76    C77     1.406   .     A
C76    C80     1.404   .     A
C77    C78     1.395   .     A
C79    C80     1.399   .     A
Ni81   N91     1.840   .     S
Ni81   N92     1.840   .     S
C82    C86     1.404   .     A
C82    C83     1.406   1_455 A
C83    C84     1.395   .     A
C83    H93     1.083   .     S
C83    C82     1.406   1_655 A
C84    H94     1.082   .     S
C84    N92     1.358   1_655 A
C85    C86     1.399   .     A
C85    N92     1.360   .     A
C85    H95     1.082   .     S
C86    H96     1.083   .     S
H87    C101    1.083   .     S
H88    C98     1.083   .     S
H89    C99     1.082   .     S
H90    C100    1.082   .     S
N91    C99     1.357   .     A
N91    C100    1.361   1_455 A
N92    C84     1.358   1_455 A
C97    C98     1.406   .     A
C97    C101    1.404   1_455 A
C98    C99     1.394   .     A
C100   C101    1.399   .     A
C100   N91     1.361   1_655 A
C101   C97     1.404   1_655 A
Ni102  N112    1.841   .     S
Ni102  N113    1.841   .     S
C103   C104    1.406   .     A
C103   C107    1.404   .     A
C104   C105    1.394   .     A
C104   H114    1.083   .     S
C105   N113    1.357   .     A
C105   H115    1.082   .     S
C106   C107    1.400   .     A
C106   N113    1.361   .     A
C106   H116    1.082   .     S
C107   H117    1.083   .     S
H108   C122    1.083   .     S
H109   C119    1.083   .     S
H110   C120    1.082   .     S
H111   C121    1.082   .     S
N112   C120    1.358   .     A
N112   C121    1.361   .     A
C118   C119    1.406   .     A
C118   C122    1.405   .     A
C119   C120    1.395   .     A
C121   C122    1.399   .     A
Ni123  N134    1.842   .     S
Ni123  N133    1.843   1_556 S
C124   C125    1.402   .     A
C124   C128    1.402   .     A
C125   C126    1.403   .     A
C125   H135    1.083   .     S
C126   N134    1.363   .     A
C126   H136    1.082   .     S
C127   C128    1.392   .     A
C127   N134    1.357   .     A
C127   H137    1.082   .     S
C128   H138    1.084   .     S
H129   C143    1.083   .     S
H130   C140    1.083   .     S
H131   C141    1.082   .     S
H132   C142    1.082   .     S
N133   C141    1.360   .     A
N133   C142    1.358   .     A
N133   Ni123   1.843   1_554 S
C139   C140    1.406   .     A
C139   C143    1.405   .     A
C140   C141    1.400   .     A
C142   C143    1.396   .     A
Ni144  N154    1.841   .     S
Ni144  N155    1.841   .     S
C145   C146    1.405   .     A
C145   C149    1.406   .     A
C146   C147    1.395   .     A
C146   H156    1.083   .     S
C147   N155    1.358   .     A
C147   H157    1.082   .     S
C148   C149    1.399   .     A
C148   N155    1.360   .     A
C148   H158    1.082   .     S
C149   H159    1.083   .     S
H150   C164    1.083   .     S
H151   C161    1.083   .     S
H152   C162    1.082   .     S
H153   C163    1.082   .     S
N154   C162    1.359   .     A
N154   C163    1.359   1_556 A
C160   C164    1.405   .     A
C160   C161    1.405   1_554 A
C161   C162    1.397   .     A
C161   C160    1.405   1_556 A
C163   C164    1.396   .     A
C163   N154    1.359   1_554 A
Ni165  N175    1.840   .     S
Ni165  N176    1.840   1_556 S
C166   C167    1.406   .     A
C166   C170    1.404   .     A
C167   C168    1.398   .     A
C167   H177    1.083   .     S
C168   N176    1.359   .     A
C168   H178    1.082   .     S
C169   C170    1.396   .     A
C169   N176    1.359   .     A
C169   H179    1.082   1_554 S
C170   H180    1.083   .     S
H171   C185    1.083   .     S
H172   C182    1.083   .     S
H173   C183    1.082   .     S
H174   C184    1.082   .     S
N175   C183    1.357   .     A
N175   C184    1.361   .     A
N176   Ni165   1.840   1_554 S
H179   C169    1.082   1_556 S
C181   C182    1.403   .     A
C181   C185    1.405   .     A
C182   C183    1.392   .     A
C184   C185    1.401   .     A
Ni186  N196    1.840   .     S
Ni186  N197    1.840   1_556 S
C187   C188    1.405   .     A
C187   C191    1.406   1_554 A
C188   C189    1.394   .     A
C188   H198    1.083   .     S
C189   N197    1.358   .     A
C189   H199    1.082   .     S
C190   C191    1.400   .     A
C190   H200    1.082   .     S
C190   N197    1.360   1_556 A
C191   H201    1.083   .     S
C191   C187    1.406   1_556 A
H192   C206    1.083   1_554 S
H193   C203    1.084   .     S
H194   C204    1.082   .     S
H195   C205    1.082   1_554 S
N196   C204    1.357   .     A
N196   C205    1.363   .     A
N197   Ni186   1.840   1_554 S
N197   C190    1.360   1_554 A
C202   C203    1.402   .     A
C202   C206    1.401   .     A
C203   C204    1.392   .     A
C205   C206    1.402   .     A
C205   H195    1.082   1_556 S
C206   H192    1.083   1_556 S
Ni207  N218    1.840   .     S
Ni207  N217    1.840   1_556 S
C208   C209    1.402   .     A
C208   C212    1.403   .     A
C209   C210    1.402   .     A
C209   H219    1.083   .     S
C210   N218    1.362   .     A
C210   H220    1.082   .     S
C211   H221    1.082   .     S
C211   C212    1.392   1_554 A
C211   N218    1.357   1_554 A
C212   C211    1.392   1_556 A
C212   H222    1.084   1_556 S
H213   C227    1.083   .     S
H214   C224    1.083   .     S
H215   C225    1.082   .     S
H216   C226    1.082   .     S
N217   C225    1.359   .     A
N217   Ni207   1.840   1_554 S
N217   C226    1.360   1_554 A
N218   C211    1.357   1_556 A
H222   C212    1.084   1_554 S
C223   C224    1.404   .     A
C223   C227    1.406   1_554 A
C224   C225    1.395   .     A
C226   C227    1.399   .     A
C226   N217    1.360   1_556 A
C227   C223    1.406   1_556 A
Ni228  N238    1.841   .     S
Ni228  N239    1.841   .     S
C229   C233    1.406   .     A
C229   C230    1.405   1_554 A
C230   C231    1.395   .     A
C230   H240    1.083   .     S
C230   C229    1.405   1_556 A
C231   N239    1.358   .     A
C231   H241    1.082   .     S
C232   C233    1.399   .     A
C232   H242    1.082   .     S
C232   N239    1.360   1_554 A
C233   H243    1.083   .     S
H234   C248    1.083   .     S
H235   C245    1.083   .     S
H236   C246    1.082   .     S
H237   C247    1.082   .     S
N238   C246    1.360   .     A
N238   C247    1.359   .     A
N239   C232    1.360   1_556 A
C244   C245    1.405   .     A
C244   C248    1.405   .     A
C245   C246    1.399   .     A
C247   C248    1.395   .     A
