data_kag+N139+E183
_audit_creation_date              2025-01-21
_audit_creation_method            'Materials Studio'
_symmetry_space_group_name_H-M    'P1'
_symmetry_Int_Tables_number       1
_symmetry_cell_setting            triclinic
loop_
_symmetry_equiv_pos_as_xyz
  x,y,z
_cell_length_a                    29.2393
_cell_length_b                    22.6689
_cell_length_c                    17.0578
_cell_angle_alpha                 91.6558
_cell_angle_beta                  88.9735
_cell_angle_gamma                 122.9713
loop_
_atom_site_label
_atom_site_type_symbol
_atom_site_fract_x
_atom_site_fract_y
_atom_site_fract_z
_atom_site_U_iso_or_equiv
_atom_site_adp_type
_atom_site_occupancy
C0     C     0.52477   0.50153   0.71526   0.00000  Uiso   1.00
Sm1    Sm    0.47283   0.51072   0.12294   0.00000  Uiso   1.00
Sm2    Sm    0.53888   0.49967   0.86721   0.00000  Uiso   1.00
C3     C     0.50158   0.41628   0.02969   0.00000  Uiso   1.00
C4     C     0.61927   0.48451   0.90068   0.00000  Uiso   1.00
O5     O     0.52623   0.55358   0.22892   0.00000  Uiso   1.00
O6     O     0.44145   0.46987   0.24198   0.00000  Uiso   1.00
O7     O     0.51782   0.58099   0.89076   0.00000  Uiso   1.00
O8     O     0.52194   0.56707   0.01546   0.00000  Uiso   1.00
O9     O     0.39409   0.46909   1.06180   0.00000  Uiso   1.00
O10    O     0.42965   0.56637   0.12990   0.00000  Uiso   1.00
O11    O     0.48570   0.45994   0.76112   0.00000  Uiso   1.00
O12    O     0.57097   0.54181   0.74870   0.00000  Uiso   1.00
O13    O     0.49494   0.43064   0.10004   0.00000  Uiso   1.00
O14    O     0.48906   0.44163   0.97442   0.00000  Uiso   1.00
O15    O     0.61669   0.53558  -0.07091   0.00000  Uiso   1.00
O16    O     0.57951   0.44102   0.85634   0.00000  Uiso   1.00
C17    C     0.48750   0.51173   0.27517   0.00000  Uiso   1.00
C18    C     0.51023   0.59387   0.96115   0.00000  Uiso   1.00
C19    C     0.38973   0.51938   0.08797   0.00000  Uiso   1.00
C20    C     1.01517   0.48972   0.28740   0.00000  Uiso   1.00
Sm21   Sm    0.97216   0.50019   0.88202   0.00000  Uiso   1.00
Sm22   Sm    0.03322   0.49353   0.13588   0.00000  Uiso   1.00
C23    C     0.07497   0.59056   0.98268   0.00000  Uiso   1.00
C24    C     0.12582   0.50529   0.10203   0.00000  Uiso   1.00
O25    O     0.99544   0.46216   0.77632   0.00000  Uiso   1.00
O26    O    -0.02016   0.54460   0.76492   0.00000  Uiso   1.00
O27    O     0.94408   0.41400   0.10830   0.00000  Uiso   1.00
O28    O     0.96887   0.43891   0.98658   0.00000  Uiso   1.00
O29    O     0.92155   0.53440  -0.05840   0.00000  Uiso   1.00
O30    O     0.88250   0.44106   0.86662   0.00000  Uiso   1.00
O31    O     0.01267   0.53269   0.24315   0.00000  Uiso   1.00
O32    O     1.02559   0.44763   0.25221   0.00000  Uiso   1.00
O33    O     0.06040   0.58214   0.91120   0.00000  Uiso   1.00
O34    O     0.03772   0.55892   0.03401   0.00000  Uiso   1.00
O35    O     0.08047   0.45611   1.07223   0.00000  Uiso   1.00
O36    O     0.12283   0.54872   0.14784   0.00000  Uiso   1.00
C37    C    -0.00805   0.50371   0.73097   0.00000  Uiso   1.00
C38    C     0.93072   0.40665   0.03642   0.00000  Uiso   1.00
C39    C     0.87738   0.48413   0.91011   0.00000  Uiso   1.00
C40    C     0.48419  -0.02061   0.27482   0.00000  Uiso   1.00
Sm41   Sm    0.53928   0.04697   0.87239   0.00000  Uiso   1.00
Sm42   Sm    0.46937   0.96152   0.12173   0.00000  Uiso   1.00
C43    C     0.49611   0.91123   0.96042   0.00000  Uiso   1.00
C44    C     0.37416   0.85235   0.07728   0.00000  Uiso   1.00
O45    O     0.48944   0.03013   0.76625   0.00000  Uiso   1.00
O46    O     0.56688   1.03980   0.75211   0.00000  Uiso   1.00
O47    O     0.50829   0.07776   0.10405   0.00000  Uiso   1.00
O48    O     0.49444   0.04987   0.98001   0.00000  Uiso   1.00
O49    O     0.61592   0.09041  -0.06132   0.00000  Uiso   1.00
O50    O     0.60346   0.16263   0.87646   0.00000  Uiso   1.00
O51    O     0.51942   0.98039   0.22804   0.00000  Uiso   1.00
O52    O     0.44132  -0.03113   0.24164   0.00000  Uiso   1.00
O53    O     0.49983   0.93037   0.88993   0.00000  Uiso   1.00
O54    O     0.51444   0.95863   0.01407   0.00000  Uiso   1.00
O55    O     0.39258   0.91456   1.05392   0.00000  Uiso   1.00
O56    O     0.40637   0.84588   0.12109   0.00000  Uiso   1.00
C57    C     0.52431   1.03048   0.71917   0.00000  Uiso   1.00
C58    C     0.51283   0.09722   0.03363   0.00000  Uiso   1.00
C59    C     0.63511   0.15355   0.91842   0.00000  Uiso   1.00
C60    C     0.49490   0.51090   0.36003   0.00000  Uiso   1.00
C61    C     0.53331   0.53138   0.49146   0.00000  Uiso   1.00
C62    C     0.47900   0.48350   0.49930   0.00000  Uiso   1.00
S63    S     0.57288   0.55700   0.57243   0.00000  Uiso   1.00
S64    S     0.45379   0.45257   0.58966   0.00000  Uiso   1.00
S65    S     0.55848   0.56263   0.40108   0.00000  Uiso   1.00
S66    S     0.43954   0.45698   0.41811   0.00000  Uiso   1.00
C67    C     0.51748   0.50344   0.63056   0.00000  Uiso   1.00
C68    C    -0.00097   0.50301   0.64587   0.00000  Uiso   1.00
C69    C    -0.00311   0.52049   0.50622   0.00000  Uiso   1.00
C70    C     1.01055   0.47239   0.51223   0.00000  Uiso   1.00
S71    S    -0.00786   0.54556   0.41602   0.00000  Uiso   1.00
S72    S     1.02114   0.43910   0.42893   0.00000  Uiso   1.00
S73    S    -0.01372   0.55382   0.58938   0.00000  Uiso   1.00
S74    S     1.01556   0.44768   0.60262   0.00000  Uiso   1.00
C75    C     1.00852   0.49018   0.37259   0.00000  Uiso   1.00
C76    C     0.49214  -0.01031   0.36027   0.00000  Uiso   1.00
C77    C     0.52947   1.01094   0.49291   0.00000  Uiso   1.00
C78    C     0.47915  -0.00015   0.50110   0.00000  Uiso   1.00
S79    S     0.56712   1.02741   0.57466   0.00000  Uiso   1.00
S80    S     0.45674   0.00260   0.59265   0.00000  Uiso   1.00
S81    S     0.55151   1.00676   0.40149   0.00000  Uiso   1.00
S82    S     0.44172  -0.01574   0.41923   0.00000  Uiso   1.00
C83    C     0.51637   1.02065   0.63370   0.00000  Uiso   1.00
C84    C     0.34114   0.52102   1.07470   0.00000  Uiso   1.00
C85    C     0.27369   0.55206   1.08600   0.00000  Uiso   1.00
C86    C     0.24615   0.48349   1.06132   0.00000  Uiso   1.00
S87    S     0.23777   0.58847   1.10901   0.00000  Uiso   1.00
S88    S     0.17742   0.43869   1.05354   0.00000  Uiso   1.00
S89    S     0.34177   0.59539   1.09986   0.00000  Uiso   1.00
S90    S     0.28165   0.44518   1.04554   0.00000  Uiso   1.00
C91    C     0.17745   0.51099   1.08670   0.00000  Uiso   1.00
C92    C     0.87352   0.36182   0.01251   0.00000  Uiso   1.00
C93    C     0.77432   0.29996   0.00355   0.00000  Uiso   1.00
C94    C     0.79014   0.27211   0.94604   0.00000  Uiso   1.00
S95    S     0.70668   0.26742   0.01370   0.00000  Uiso   1.00
S96    S     0.74197   0.20635   0.88845   0.00000  Uiso   1.00
S97    S     0.82300   0.36340   0.06367   0.00000  Uiso   1.00
S98    S     0.85718   0.30349   0.93555   0.00000  Uiso   1.00
C99    C     0.69133   0.20908  -0.06317   0.00000  Uiso   1.00
C100   C     0.82489   0.47738  -0.07975   0.00000  Uiso   1.00
C101   C     0.75499   0.50250  -0.05218   0.00000  Uiso   1.00
C102   C     0.73170   0.44482  -0.10046   0.00000  Uiso   1.00
S103   S     0.71893   0.53882  -0.02808   0.00000  Uiso   1.00
S104   S     0.66786   0.41180  -0.13315   0.00000  Uiso   1.00
S105   S     0.82053   0.53871  -0.02455   0.00000  Uiso   1.00
S106   S     0.76934   0.41254   0.86903   0.00000  Uiso   1.00
C107   C     0.66523   0.47735  -0.08500   0.00000  Uiso   1.00
C108   C     0.31806   0.79519   1.06167   0.00000  Uiso   1.00
C109   C     0.23282   0.70840   0.99692   0.00000  Uiso   1.00
C110   C     0.21880   0.72293   1.06789   0.00000  Uiso   1.00
S111   S     0.18212   0.64955   0.93608   0.00000  Uiso   1.00
S112   S     0.15179   0.68437   0.09000   0.00000  Uiso   1.00
S113   S     0.29998   0.75115   0.97264   0.00000  Uiso   1.00
S114   S     0.26925   0.78120   0.12922   0.00000  Uiso   1.00
C115   C     0.13297   0.63640   1.00329   0.00000  Uiso   1.00
C116   C     0.47873   0.83865   0.97741   0.00000  Uiso   1.00
C117   C     0.46224   0.72202   0.95054   0.00000  Uiso   1.00
C118   C     0.49156   0.74580   0.01782   0.00000  Uiso   1.00
S119   S     0.45251   0.64804   0.90681   0.00000  Uiso   1.00
S120   S     0.51739   0.70063   0.05356   0.00000  Uiso   1.00
S121   S     0.44496   0.77359   0.90706   0.00000  Uiso   1.00
S122   S     0.50813   0.82499   0.05525   0.00000  Uiso   1.00
C123   C     0.49075   0.64084   0.97669   0.00000  Uiso   1.00
C124   C     0.52068   0.36870   0.01566   0.00000  Uiso   1.00
C125   C     0.54738   0.28632   0.04464   0.00000  Uiso   1.00
C126   C     0.52123   0.26466  -0.02525   0.00000  Uiso   1.00
S127   S     0.56247   0.23344   0.08989   0.00000  Uiso   1.00
S128   S     0.50643   0.18657   0.93587   0.00000  Uiso   1.00
S129   S     0.55544   0.35902   0.08902   0.00000  Uiso   1.00
S130   S     0.49672   0.31064   0.93705   0.00000  Uiso   1.00
C131   C     0.53187   0.17039   0.01682   0.00000  Uiso   1.00
loop_
_geom_bond_atom_site_label_1
_geom_bond_atom_site_label_2
_geom_bond_distance
_geom_bond_site_symmetry_2
_ccdc_geom_bond_type
C0     O11     1.282   .     A
C0     O12     1.280   .     A
C0     C67     1.470   .     S
Sm1    O5      2.236   .     S
Sm1    O6      2.223   .     S
Sm1    O8      2.258   .     S
Sm1    O10     2.218   .     S
Sm1    O13     2.257   .     S
Sm1    O9      2.223   1_554 S
Sm2    O7      2.263   .     S
Sm2    O11     2.233   .     S
Sm2    O12     2.224   .     S
Sm2    O14     2.270   .     S
Sm2    O16     2.216   .     S
Sm2    O15     2.230   1_556 S
C3     O13     1.274   .     A
C3     C124    1.473   .     S
C3     O14     1.275   1_554 A
C4     O16     1.279   .     A
C4     O15     1.281   1_556 A
C4     C107    1.464   1_556 S
O5     C17     1.283   .     A
O6     C17     1.281   .     A
O7     C18     1.272   .     A
O8     C18     1.271   1_554 A
O9     Sm1     2.223   1_556 S
O9     C19     1.281   1_556 A
O10    C19     1.281   .     A
O14    C3      1.275   1_556 A
O15    Sm2     2.230   1_554 S
O15    C4      1.281   1_554 A
C17    C60     1.470   .     S
C18    C123    1.472   .     S
C18    O8      1.271   1_556 A
C19    O9      1.281   1_554 A
C19    C84     1.463   1_554 S
C20    O32     1.281   .     A
C20    C75     1.463   .     S
C20    O31     1.283   1_655 A
Sm21   O25     2.228   .     S
Sm21   O28     2.261   .     S
Sm21   O30     2.218   .     S
Sm21   O26     2.215   1_655 S
Sm21   O29     2.230   1_556 S
Sm21   O33     2.265   1_655 S
Sm22   O31     2.224   .     S
Sm22   O34     2.272   .     S
Sm22   O36     2.216   .     S
Sm22   O27     2.268   1_455 S
Sm22   O32     2.218   1_455 S
Sm22   O35     2.231   1_554 S
C23    O33     1.273   .     A
C23    C115    1.470   .     S
C23    O34     1.272   1_556 A
C24    O36     1.279   .     A
C24    O35     1.281   1_554 A
C24    C91     1.463   1_554 S
O25    C37     1.283   1_655 A
O26    C37     1.280   .     A
O26    Sm21    2.215   1_455 S
O27    C38     1.272   .     A
O27    Sm22    2.268   1_655 S
O28    C38     1.271   1_556 A
O29    Sm21    2.230   1_554 S
O29    C39     1.282   1_554 A
O30    C39     1.280   .     A
O31    C20     1.283   1_455 A
O32    Sm22    2.218   1_655 S
O33    Sm21    2.265   1_455 S
O34    C23     1.272   1_554 A
O35    Sm22    2.231   1_556 S
O35    C24     1.281   1_556 A
C37    C68     1.464   .     S
C37    O25     1.283   1_455 A
C38    C92     1.465   .     S
C38    O28     1.271   1_554 A
C39    O29     1.282   1_556 A
C39    C100    1.465   1_556 S
C40    O52     1.281   .     A
C40    C76     1.472   .     S
C40    O51     1.282   1_545 A
Sm41   O45     2.235   .     S
Sm41   O48     2.257   .     S
Sm41   O50     2.245   .     S
Sm41   O46     2.225   1_545 S
Sm41   O49     2.212   1_556 S
Sm41   O53     2.263   1_545 S
Sm42   O51     2.232   .     S
Sm42   O54     2.261   .     S
Sm42   O56     2.238   .     S
Sm42   O47     2.258   1_565 S
Sm42   O52     2.225   1_565 S
Sm42   O55     2.221   1_554 S
C43    O53     1.273   .     A
C43    C116    1.470   .     S
C43    O54     1.270   1_556 A
C44    O56     1.284   .     A
C44    O55     1.279   1_554 A
C44    C108    1.457   1_554 S
O45    C57     1.283   1_545 A
O46    C57     1.281   .     A
O46    Sm41    2.225   1_565 S
O47    C58     1.271   .     A
O47    Sm42    2.258   1_545 S
O48    C58     1.269   1_556 A
O49    Sm41    2.212   1_554 S
O49    C59     1.277   1_554 A
O50    C59     1.285   .     A
O51    C40     1.282   1_565 A
O52    Sm42    2.225   1_545 S
O53    Sm41    2.263   1_565 S
O54    C43     1.270   1_554 A
O55    Sm42    2.221   1_556 S
O55    C44     1.279   1_556 A
C57    C83     1.472   .     S
C57    O45     1.283   1_565 A
C58    C131    1.470   .     S
C58    O48     1.269   1_554 A
C59    O49     1.277   1_556 A
C59    C99     1.459   1_556 S
C60    S65     1.717   .     A
C60    S66     1.719   .     A
C61    C62     1.357   .     A
C61    S63     1.692   .     A
C61    S65     1.696   .     A
C62    S64     1.694   .     A
C62    S66     1.693   .     A
S63    C67     1.718   .     A
S64    C67     1.717   .     A
C68    S73     1.714   .     A
C68    S74     1.716   1_455 A
C69    S71     1.689   .     A
C69    S73     1.690   .     A
C69    C70     1.357   1_455 A
C70    S72     1.692   .     A
C70    S74     1.691   .     A
C70    C69     1.357   1_655 A
S71    C75     1.715   1_455 A
S72    C75     1.715   .     A
S74    C68     1.716   1_655 A
C75    S71     1.715   1_655 A
C76    S82     1.719   .     A
C76    S81     1.719   1_545 A
C77    S79     1.695   .     A
C77    S81     1.697   .     A
C77    C78     1.356   1_565 A
C78    S80     1.695   .     A
C78    S82     1.696   .     A
C78    C77     1.356   1_545 A
S79    C83     1.717   .     A
S80    C83     1.717   1_545 A
S81    C76     1.719   1_565 A
C83    S80     1.717   1_565 A
C84    S89     1.718   .     A
C84    S90     1.719   .     A
C84    C19     1.463   1_556 S
C85    C86     1.361   .     A
C85    S87     1.688   .     A
C85    S89     1.691   .     A
C86    S88     1.694   .     A
C86    S90     1.692   .     A
S87    C91     1.719   .     A
S88    C91     1.718   .     A
C91    C24     1.463   1_556 S
C92    S97     1.719   .     A
C92    S98     1.713   1_554 A
C93    S95     1.701   .     A
C93    S97     1.699   .     A
C93    C94     1.357   1_554 A
C94    S96     1.688   .     A
C94    S98     1.690   .     A
C94    C93     1.357   1_556 A
S95    C99     1.716   .     A
S96    C99     1.712   1_556 A
S98    C92     1.713   1_556 A
C99    S96     1.712   1_554 A
C99    C59     1.459   1_554 S
C100   S105    1.717   .     A
C100   S106    1.715   1_554 A
C100   C39     1.465   1_554 S
C101   C102    1.357   .     A
C101   S103    1.694   .     A
C101   S105    1.693   .     A
C102   S104    1.688   .     A
C102   S106    1.689   1_554 A
S103   C107    1.716   .     A
S104   C107    1.715   .     A
S106   C100    1.715   1_556 A
S106   C102    1.689   1_556 A
C107   C4      1.464   1_554 S
C108   S113    1.717   .     A
C108   S114    1.713   1_556 A
C108   C44     1.457   1_556 S
C109   C110    1.360   .     A
C109   S111    1.696   .     A
C109   S113    1.700   .     A
C110   S112    1.695   1_556 A
C110   S114    1.694   1_556 A
S111   C115    1.721   .     A
S112   C110    1.695   1_554 A
S112   C115    1.720   1_554 A
S114   C108    1.713   1_554 A
S114   C110    1.694   1_554 A
C115   S112    1.720   1_556 A
C116   S121    1.716   .     A
C116   S122    1.718   1_556 A
C117   S119    1.693   .     A
C117   S121    1.696   .     A
C117   C118    1.356   1_556 A
C118   S120    1.698   .     A
C118   S122    1.692   .     A
C118   C117    1.356   1_554 A
S119   C123    1.719   .     A
S120   C123    1.717   1_554 A
S122   C116    1.718   1_554 A
C123   S120    1.717   1_556 A
C124   S129    1.718   .     A
C124   S130    1.717   1_554 A
C125   C126    1.355   .     A
C125   S127    1.694   .     A
C125   S129    1.690   .     A
C126   S128    1.694   1_554 A
C126   S130    1.698   1_554 A
S127   C131    1.715   .     A
S128   C126    1.694   1_556 A
S128   C131    1.719   1_556 A
S130   C124    1.717   1_556 A
S130   C126    1.698   1_556 A
C131   S128    1.719   1_554 A
