data_kag+N155+E14
_audit_creation_date              2025-01-21
_audit_creation_method            'Materials Studio'
_symmetry_space_group_name_H-M    'P1'
_symmetry_Int_Tables_number       1
_symmetry_cell_setting            triclinic
loop_
_symmetry_equiv_pos_as_xyz
  x,y,z
_cell_length_a                    24.7495
_cell_length_b                    27.1246
_cell_length_c                    10.3118
_cell_angle_alpha                 90.9514
_cell_angle_beta                  93.6181
_cell_angle_gamma                 128.4375
loop_
_atom_site_label
_atom_site_type_symbol
_atom_site_fract_x
_atom_site_fract_y
_atom_site_fract_z
_atom_site_U_iso_or_equiv
_atom_site_adp_type
_atom_site_occupancy
C0     C     0.47697   0.34391   0.00714   0.00000  Uiso   1.00
Ho1    Ho    0.45522   0.42603  -0.03715   0.00000  Uiso   1.00
C2     C     0.53295   0.66188   0.98744   0.00000  Uiso   1.00
Ho3    Ho    0.55378   0.57991   1.04256   0.00000  Uiso   1.00
O4     O     0.42405   0.33715   0.03810   0.00000  Uiso   1.00
O5     O     0.52066   0.39675   0.95969   0.00000  Uiso   1.00
O6     O     0.42968   0.41979   0.17195   0.00000  Uiso   1.00
O7     O     0.52485   0.49464   0.13087   0.00000  Uiso   1.00
C8     C     0.48022   0.46782   0.22328   0.00000  Uiso   1.00
C9     C     0.52887   0.53829   0.78194   0.00000  Uiso   1.00
O10    O     0.56789   0.46519  -0.03342   0.00000  Uiso   1.00
O11    O     0.63555   0.57211   1.02260   0.00000  Uiso   1.00
O12    O     0.58639   0.66827   0.96246   0.00000  Uiso   1.00
O13    O     0.48877   0.60999   0.03802   0.00000  Uiso   1.00
O14    O     0.57896   0.58702   0.83260   0.00000  Uiso   1.00
O15    O     0.48449   0.51104   0.87494   0.00000  Uiso   1.00
O16    O     0.44190   0.54205   1.04214   0.00000  Uiso   1.00
O17    O     0.37424   0.43511  -0.01415   0.00000  Uiso   1.00
C18    C     0.38193   0.48555   1.01935   0.00000  Uiso   1.00
C19    C     0.62793   0.52164  -0.00960   0.00000  Uiso   1.00
C20    C     0.13449   0.46084   0.03551   0.00000  Uiso   1.00
Ho21   Ho    0.04811   0.48377   0.01681   0.00000  Uiso   1.00
C22    C     0.87512   0.54564   0.98063   0.00000  Uiso   1.00
Ho23   Ho    0.96151   0.52273   1.00009   0.00000  Uiso   1.00
O24    O     0.11183   0.46868   0.13614   0.00000  Uiso   1.00
O25    O     0.10595   0.45934   0.92614   0.00000  Uiso   1.00
O26    O     0.07223   0.48152   0.22383   0.00000  Uiso   1.00
O27    O     1.00778   0.50728   0.15545   0.00000  Uiso   1.00
C28    C     0.03769   0.49730   0.25661   0.00000  Uiso   1.00
C29    C    -0.02812   0.50904   0.76027   0.00000  Uiso   1.00
O30    O     0.13019   0.58621   0.02270   0.00000  Uiso   1.00
O31    O     0.06271   0.61800   1.00448   0.00000  Uiso   1.00
O32    O     0.89780   0.53772   0.88016   0.00000  Uiso   1.00
O33    O     0.90359   0.54728   0.09024   0.00000  Uiso   1.00
O34    O     0.93723   0.52470   0.79304   0.00000  Uiso   1.00
O35    O     0.00179   0.49913   0.86147   0.00000  Uiso   1.00
O36    O     0.87967   0.42057   0.99538   0.00000  Uiso   1.00
O37    O     0.94656   0.38821   0.01055   0.00000  Uiso   1.00
C38    C     0.88683   0.37703   1.00093   0.00000  Uiso   1.00
C39    C     0.12249   0.62939   0.01544   0.00000  Uiso   1.00
C40    C     0.52613   0.86961   0.97135   0.00000  Uiso   1.00
Ho41   Ho    0.54945   0.97737   1.02684   0.00000  Uiso   1.00
C42    C     0.48127   0.13435   0.00534   0.00000  Uiso   1.00
Ho43   Ho    0.45713   0.02619  -0.04485   0.00000  Uiso   1.00
O44    O     0.57996   0.92336   0.94750   0.00000  Uiso   1.00
O45    O     0.48152   0.87263   0.01738   0.00000  Uiso   1.00
O46    O     0.57581   0.99823   0.81769   0.00000  Uiso   1.00
O47    O     0.48290  -0.02863   0.86058   0.00000  Uiso   1.00
C48    C     0.52763  -0.00692   0.76826   0.00000  Uiso   1.00
C49    C     0.48147   1.01452   0.21477   0.00000  Uiso   1.00
O50    O     0.43634   0.89098   1.02051   0.00000  Uiso   1.00
O51    O     0.37323   0.92595  -0.02713   0.00000  Uiso   1.00
O52    O     0.42822   0.08141   0.03559   0.00000  Uiso   1.00
O53    O     0.52436   0.13019   0.95543   0.00000  Uiso   1.00
O54    O     0.43421   0.01136   0.16703   0.00000  Uiso   1.00
O55    O     0.52397   1.03257   0.11928   0.00000  Uiso   1.00
O56    O     0.57086   0.11266  -0.03570   0.00000  Uiso   1.00
O57    O     0.63411   0.07795   1.01333   0.00000  Uiso   1.00
C58    C     0.62942   0.12175  -0.01346   0.00000  Uiso   1.00
C59    C     0.37799   0.88236   1.00106   0.00000  Uiso   1.00
C60    C     0.55944   0.53644   0.42356   0.00000  Uiso   1.00
C61    C     0.49270   0.48709   0.36566   0.00000  Uiso   1.00
C62    C     0.43807   0.45372   0.44665   0.00000  Uiso   1.00
C63    C     0.44978   0.46946   0.58187   0.00000  Uiso   1.00
C64    C     0.51654   0.51882   0.63974   0.00000  Uiso   1.00
C65    C     0.57121   0.55211   0.55882   0.00000  Uiso   1.00
H66    H     0.60270   0.56256   0.36422   0.00000  Uiso   1.00
H67    H     0.38605   0.41532   0.40513   0.00000  Uiso   1.00
H68    H     0.40640   0.44351   0.64089   0.00000  Uiso   1.00
H69    H     0.62326   0.59043   0.60035   0.00000  Uiso   1.00
C70    C     0.03158   0.49062   0.61329   0.00000  Uiso   1.00
C71    C    -0.01377   0.50452   0.63043   0.00000  Uiso   1.00
C72    C     0.95937   0.51709   0.52569   0.00000  Uiso   1.00
C73    C     0.97792   0.51569   0.40328   0.00000  Uiso   1.00
C74    C     0.02342   0.50193   0.38628   0.00000  Uiso   1.00
C75    C     0.05036   0.48947   0.49107   0.00000  Uiso   1.00
H76    H     0.05327   0.48109   0.69420   0.00000  Uiso   1.00
H77    H     0.92466   0.52806   0.53846   0.00000  Uiso   1.00
H78    H     0.95618   0.52507   0.32206   0.00000  Uiso   1.00
H79    H     0.08514   0.47857   0.47851   0.00000  Uiso   1.00
C80    C     0.44704   0.99863   0.44541   0.00000  Uiso   1.00
C81    C     0.49350   0.00872   0.35611   0.00000  Uiso   1.00
C82    C     0.55181   0.01456   0.40443   0.00000  Uiso   1.00
C83    C     0.56321   0.01031   0.53805   0.00000  Uiso   1.00
C84    C     0.51650  -0.00012   0.62723   0.00000  Uiso   1.00
C85    C     0.45830   0.99416   0.57892   0.00000  Uiso   1.00
H86    H     0.40175   0.99422   0.41180   0.00000  Uiso   1.00
H87    H     0.58855   0.02226   0.33876   0.00000  Uiso   1.00
H88    H     0.60844   0.01458   0.57165   0.00000  Uiso   1.00
H89    H     0.42150   0.98634   0.64448   0.00000  Uiso   1.00
C90    C     0.25451   0.42489   0.96663   0.00000  Uiso   1.00
C91    C     0.31782   0.47821   0.02904   0.00000  Uiso   1.00
C92    C     0.31856   0.52376   0.09889   0.00000  Uiso   1.00
C93    C     0.25716   0.51506   0.10842   0.00000  Uiso   1.00
C94    C     0.19474   0.46249   0.04373   0.00000  Uiso   1.00
C95    C     0.19379   0.41778  -0.02833   0.00000  Uiso   1.00
H96    H     0.25209   0.38933   0.91069   0.00000  Uiso   1.00
H97    H     0.36600   0.56670   0.14544   0.00000  Uiso   1.00
H98    H     0.25915   0.55121   0.16075   0.00000  Uiso   1.00
H99    H     0.14625   0.37760   0.91864   0.00000  Uiso   1.00
C100   C     0.75797   0.29994  -0.00403   0.00000  Uiso   1.00
C101   C     0.82175   0.31119  -0.00378   0.00000  Uiso   1.00
C102   C     0.82160   0.25933  -0.00912   0.00000  Uiso   1.00
C103   C     0.75904   0.19782  -0.01434   0.00000  Uiso   1.00
C104   C     0.69537   0.18682  -0.01401   0.00000  Uiso   1.00
C105   C     0.69579   0.23875   0.99103   0.00000  Uiso   1.00
H106   H     0.75575   0.33859   1.00081   0.00000  Uiso   1.00
H107   H     0.86953   0.26607  -0.01020   0.00000  Uiso   1.00
H108   H     0.76079   0.15890  -0.01860   0.00000  Uiso   1.00
H109   H     0.64835   0.23262   0.99318   0.00000  Uiso   1.00
C110   C     0.81649   0.59017   0.03799   0.00000  Uiso   1.00
C111   C     0.81476   0.54376   0.97194   0.00000  Uiso   1.00
C112   C     0.75179   0.48971   0.91257   0.00000  Uiso   1.00
C113   C     0.69062   0.48144   0.92120   0.00000  Uiso   1.00
C114   C     0.69207   0.52878   0.98356   0.00000  Uiso   1.00
C115   C     0.75587   0.58342   0.04132   0.00000  Uiso   1.00
H116   H     0.86454   0.63126   0.08745   0.00000  Uiso   1.00
H117   H     0.74936   0.45236   0.86496   0.00000  Uiso   1.00
H118   H     0.64254   0.43761   0.88016   0.00000  Uiso   1.00
H119   H     0.75859   0.62022   0.09217   0.00000  Uiso   1.00
C120   C     0.31136   0.77227   1.07173   0.00000  Uiso   1.00
C121   C     0.31219   0.81809   0.00860   0.00000  Uiso   1.00
C122   C     0.24929   0.80206  -0.04737   0.00000  Uiso   1.00
C123   C     0.18700   0.74124  -0.04186   0.00000  Uiso   1.00
C124   C     0.18662   0.69519   1.01865   0.00000  Uiso   1.00
C125   C     0.24936   0.71136   1.07597   0.00000  Uiso   1.00
H126   H     0.35852   0.78352   1.11848   0.00000  Uiso   1.00
H127   H     0.24829   0.83624  -0.09759   0.00000  Uiso   1.00
H128   H     0.13957   0.72988  -0.08795   0.00000  Uiso   1.00
H129   H     0.25039   0.67687   1.12481   0.00000  Uiso   1.00
C130   C     0.57392   0.81606  -0.09519   0.00000  Uiso   1.00
C131   C     0.51976   0.81169  -0.04468   0.00000  Uiso   1.00
C132   C     0.46552   0.75442   0.00364   0.00000  Uiso   1.00
C133   C     0.46780   0.70387   0.00772   0.00000  Uiso   1.00
C134   C     0.52447   0.71038  -0.03527   0.00000  Uiso   1.00
C135   C     0.57640   0.76615  -0.09021   0.00000  Uiso   1.00
H136   H     0.61658   0.85938  -0.13287   0.00000  Uiso   1.00
H137   H     0.42324   0.74972   0.04329   0.00000  Uiso   1.00
H138   H     0.42710   0.66026   0.04875   0.00000  Uiso   1.00
H139   H     0.62071   0.77244  -0.12442   0.00000  Uiso   1.00
C140   C     0.44578   0.24607   1.10180   0.00000  Uiso   1.00
C141   C     0.48547   0.29489   1.01948   0.00000  Uiso   1.00
C142   C     0.52891   0.29364   0.94067   0.00000  Uiso   1.00
C143   C     0.53110   0.24314   0.94156   0.00000  Uiso   1.00
C144   C     0.48918   0.19294   1.02022   0.00000  Uiso   1.00
C145   C     0.44757   0.19555   1.10207   0.00000  Uiso   1.00
H146   H     0.41176   0.24607   1.16290   0.00000  Uiso   1.00
H147   H     0.55800   0.33016   0.87332   0.00000  Uiso   1.00
H148   H     0.56235   0.24157   0.87534   0.00000  Uiso   1.00
H149   H     0.41447   0.15736   1.16323   0.00000  Uiso   1.00
loop_
_geom_bond_atom_site_label_1
_geom_bond_atom_site_label_2
_geom_bond_distance
_geom_bond_site_symmetry_2
_ccdc_geom_bond_type
C0     O4      1.268   .     A
C0     O5      1.275   1_554 A
C0     C141    1.476   1_554 S
Ho1    O4      2.199   .     S
Ho1    O6      2.264   .     S
Ho1    O7      2.228   .     S
Ho1    O10     2.282   .     S
Ho1    O17     2.192   .     S
Ho1    O5      2.205   1_554 S
Ho1    O15     2.177   1_554 S
C2     O12     1.267   .     A
C2     O13     1.277   1_556 A
C2     C134    1.475   1_556 S
Ho3    O11     2.183   .     S
Ho3    O12     2.196   .     S
Ho3    O14     2.269   .     S
Ho3    O15     2.226   .     S
Ho3    O16     2.277   .     S
Ho3    O7      2.187   1_556 S
Ho3    O13     2.209   1_556 S
O5     C0      1.275   1_556 A
O5     Ho1     2.205   1_556 S
O6     C8      1.187   .     D
O7     C8      1.347   .     S
O7     Ho3     2.187   1_554 S
C8     C61     1.497   .     S
C9     O14     1.190   .     D
C9     O15     1.349   .     S
C9     C64     1.496   .     S
O10    C19     1.314   .     A
O11    C19     1.295   1_556 A
O13    C2      1.277   1_554 A
O13    Ho3     2.209   1_554 S
O15    Ho1     2.177   1_556 S
O16    C18     1.312   .     A
O17    C18     1.296   1_554 A
C18    O17     1.296   1_556 A
C18    C91     1.482   1_556 S
C19    O11     1.295   1_554 A
C19    C114    1.481   1_554 S
C20    O24     1.285   .     A
C20    C94     1.461   .     S
C20    O25     1.278   1_554 A
Ho21   O24     2.178   .     S
Ho21   O26     2.192   .     S
Ho21   O30     2.194   .     S
Ho21   O25     2.165   1_554 S
Ho21   O27     2.095   1_455 S
Ho21   O35     2.107   1_554 S
Ho21   O37     2.217   1_455 S
C22    O32     1.285   .     A
C22    C111    1.460   .     S
C22    O33     1.279   1_556 A
Ho23   O32     2.179   .     S
Ho23   O34     2.192   .     S
Ho23   O36     2.188   .     S
Ho23   O27     2.108   1_556 S
Ho23   O31     2.211   1_655 S
Ho23   O33     2.167   1_556 S
Ho23   O35     2.095   1_655 S
O25    C20     1.278   1_556 A
O25    Ho21    2.165   1_556 S
O26    C28     1.231   .     D
O27    Ho21    2.095   1_655 S
O27    Ho23    2.108   1_554 S
O27    C28     1.368   1_655 S
C28    C74     1.427   .     S
C28    O27     1.368   1_455 S
C29    O35     1.367   .     S
C29    C71     1.429   .     S
C29    O34     1.231   1_455 D
O30    C39     1.301   .     A
O31    Ho23    2.211   1_455 S
O31    C39     1.306   1_556 A
O33    C22     1.279   1_554 A
O33    Ho23    2.167   1_554 S
O34    C29     1.231   1_655 D
O35    Ho21    2.107   1_556 S
O35    Ho23    2.095   1_455 S
O36    C38     1.300   .     A
O37    Ho21    2.217   1_655 S
O37    C38     1.308   1_554 A
C38    O37     1.308   1_556 A
C38    C101    1.482   1_556 S
C39    O31     1.306   1_554 A
C39    C124    1.475   1_554 S
C40    O44     1.265   .     A
C40    O45     1.276   1_556 A
C40    C131    1.484   1_556 S
Ho41   O44     2.191   .     S
Ho41   O46     2.271   .     S
Ho41   O50     2.269   .     S
Ho41   O45     2.222   1_556 S
Ho41   O47     2.232   1_565 S
Ho41   O55     2.180   1_556 S
Ho41   O57     2.190   1_565 S
C42    O52     1.267   .     A
C42    O53     1.277   1_554 A
C42    C144    1.480   1_554 S
Ho43   O52     2.193   .     S
Ho43   O54     2.271   .     S
Ho43   O56     2.277   .     S
Ho43   O47     2.186   1_554 S
Ho43   O51     2.187   1_545 S
Ho43   O53     2.211   1_554 S
Ho43   O55     2.216   1_545 S
O45    C40     1.276   1_554 A
O45    Ho41    2.222   1_554 S
O46    C48     1.189   1_565 D
O47    C48     1.349   .     S
O47    Ho41    2.232   1_545 S
O47    Ho43    2.186   1_556 S
C48    C84     1.499   .     S
C48    O46     1.189   1_545 D
C49    O55     1.350   .     S
C49    O54     1.191   1_565 D
C49    C81     1.500   1_565 S
O50    C59     1.312   .     A
O51    Ho43    2.187   1_565 S
O51    C59     1.295   1_554 A
O53    C42     1.277   1_556 A
O53    Ho43    2.211   1_556 S
O54    C49     1.191   1_545 D
O55    Ho41    2.180   1_554 S
O55    Ho43    2.216   1_565 S
O56    C58     1.314   .     A
O57    Ho41    2.190   1_545 S
O57    C58     1.296   1_556 A
C58    C104    1.483   .     S
C58    O57     1.296   1_554 A
C59    O51     1.295   1_556 A
C59    C121    1.479   1_556 S
C60    C61     1.406   .     A
C60    C65     1.409   .     A
C60    H66     1.085   .     S
C61    C62     1.411   .     A
C62    C63     1.409   .     A
C62    H67     1.084   .     S
C63    C64     1.406   .     A
C63    H68     1.084   .     S
C64    C65     1.411   .     A
C65    H69     1.084   .     S
C70    C71     1.408   .     A
C70    C75     1.377   .     A
C70    H76     1.083   .     S
C71    C72     1.389   1_455 A
C72    C73     1.378   .     A
C72    H77     1.084   .     S
C72    C71     1.389   1_655 A
C73    H78     1.084   .     S
C73    C74     1.408   1_655 A
C74    C75     1.388   .     A
C74    C73     1.408   1_455 A
C75    H79     1.084   .     S
C80    C85     1.410   .     A
C80    H86     1.083   .     S
C80    C81     1.413   1_565 A
C81    C82     1.406   .     A
C81    C80     1.413   1_545 A
C81    C49     1.500   1_545 S
C82    C83     1.410   .     A
C82    H87     1.084   .     S
C83    C84     1.414   .     A
C83    H88     1.084   .     S
C84    C85     1.406   1_545 A
C85    H89     1.083   .     S
C85    C84     1.406   1_565 A
C90    H96     1.083   .     S
C90    C91     1.409   1_556 A
C90    C95     1.396   1_556 A
C91    C92     1.409   .     A
C91    C90     1.409   1_554 A
C91    C18     1.482   1_554 S
C92    C93     1.396   .     A
C92    H97     1.084   .     S
C93    C94     1.402   .     A
C93    H98     1.083   .     S
C94    C95     1.399   .     A
C95    C90     1.396   1_554 A
C95    H99     1.084   1_554 S
H99    C95     1.084   1_556 S
C100   C101    1.409   .     A
C100   C105    1.392   1_554 A
C100   H106    1.084   1_554 S
C101   C102    1.404   .     A
C101   C38     1.482   1_554 S
C102   C103    1.400   .     A
C102   H107    1.083   .     S
C103   C104    1.410   .     A
C103   H108    1.083   .     S
C104   C105    1.402   1_554 A
C105   H109    1.081   .     S
C105   C100    1.392   1_556 A
C105   C104    1.402   1_556 A
H106   C100    1.084   1_556 S
C110   C115    1.397   .     A
C110   H116    1.083   .     S
C110   C111    1.397   1_554 A
C111   C112    1.401   .     A
C111   C110    1.397   1_556 A
C112   C113    1.395   .     A
C112   H117    1.084   .     S
C113   C114    1.406   .     A
C113   H118    1.081   .     S
C114   C115    1.410   1_556 A
C114   C19     1.481   1_556 S
C115   H119    1.082   .     S
C115   C114    1.410   1_554 A
C120   C125    1.395   .     A
C120   H126    1.081   .     S
C120   C121    1.402   1_556 A
C121   C122    1.408   .     A
C121   C120    1.402   1_554 A
C121   C59     1.479   1_554 S
C122   C123    1.398   .     A
C122   H127    1.082   .     S
C123   H128    1.083   .     S
C123   C124    1.401   1_554 A
C124   C125    1.408   .     A
C124   C123    1.401   1_556 A
C124   C39     1.475   1_556 S
C125   H129    1.083   .     S
C130   C131    1.405   .     A
C130   C135    1.394   .     A
C130   H136    1.082   .     S
C131   C132    1.407   .     A
C131   C40     1.484   1_554 S
C132   C133    1.408   .     A
C132   H137    1.081   .     S
C133   C134    1.403   .     A
C133   H138    1.087   .     S
C134   C135    1.402   .     A
C134   C2      1.475   1_554 S
C135   H139    1.084   .     S
C140   C141    1.402   .     A
C140   C145    1.399   .     A
C140   H146    1.083   .     S
C141   C142    1.405   .     A
C141   C0      1.476   1_556 S
C142   C143    1.404   .     A
C142   H147    1.087   .     S
C143   C144    1.405   .     A
C143   H148    1.083   .     S
C144   C145    1.406   .     A
C144   C42     1.480   1_556 S
C145   H149    1.083   .     S
