data_kag+N248+E14
_audit_creation_date              2025-01-21
_audit_creation_method            'Materials Studio'
_symmetry_space_group_name_H-M    'P1'
_symmetry_Int_Tables_number       1
_symmetry_cell_setting            triclinic
loop_
_symmetry_equiv_pos_as_xyz
  x,y,z
_cell_length_a                    24.5691
_cell_length_b                    25.0558
_cell_length_c                    11.3269
_cell_angle_alpha                 94.9256
_cell_angle_beta                  89.7966
_cell_angle_gamma                 129.6346
loop_
_atom_site_label
_atom_site_type_symbol
_atom_site_fract_x
_atom_site_fract_y
_atom_site_fract_z
_atom_site_U_iso_or_equiv
_atom_site_adp_type
_atom_site_occupancy
O0     O     0.51285   0.55539   0.86560   0.00000  Uiso   1.00
Yb1    Yb    0.46105   0.43176   1.02870   0.00000  Uiso   1.00
C2     C     0.41331   0.30603   0.00777   0.00000  Uiso   1.00
Yb3    Yb    0.52346   0.57423   0.06394   0.00000  Uiso   1.00
O4     O     0.46505   0.44091   0.84322   0.00000  Uiso   1.00
C5     C     0.39656   0.52407   0.04989   0.00000  Uiso   1.00
C6     C     0.48812   0.49748   0.79950   0.00000  Uiso   1.00
O7     O     0.55158   0.62337   0.90417   0.00000  Uiso   1.00
C8     C     0.59774   0.68356   0.96597   0.00000  Uiso   1.00
O9     O     0.54277   0.42535   1.02441   0.00000  Uiso   1.00
O10    O     0.57531   0.53088   0.04361   0.00000  Uiso   1.00
O11    O     0.46560   0.44079   0.22061   0.00000  Uiso   1.00
O12    O     0.61227   0.68119   0.07310   0.00000  Uiso   1.00
O13    O     0.51541   0.55516   0.24716   0.00000  Uiso   1.00
C14    C     0.59379   0.48800   1.03312   0.00000  Uiso   1.00
C15    C     0.48983   0.49715   0.28822   0.00000  Uiso   1.00
O16    O     0.47928   0.35893   0.01743   0.00000  Uiso   1.00
O17    O     0.37186   0.32049   1.00663   0.00000  Uiso   1.00
O18    O     0.44681   0.58636   0.07248   0.00000  Uiso   1.00
O19    O     0.41370   0.47986   1.03619   0.00000  Uiso   1.00
O20    O     0.95907   0.52046   0.86953   0.00000  Uiso   1.00
Yb21   Yb    0.05233   0.50455   0.05584   0.00000  Uiso   1.00
C22    C     0.14470   0.48873   0.04599   0.00000  Uiso   1.00
Yb23   Yb    0.95513   0.52942   1.06052   0.00000  Uiso   1.00
O24    O     0.03987   0.50241   0.86571   0.00000  Uiso   1.00
C25    C     0.86766   0.39448   0.05058   0.00000  Uiso   1.00
C26    C     0.99938   0.51130   0.81317   0.00000  Uiso   1.00
O27    O     0.84666   0.48181   1.05664   0.00000  Uiso   1.00
C28    C     0.85723   0.53874   1.05661   0.00000  Uiso   1.00
O29    O     0.15776   0.60185   1.06571   0.00000  Uiso   1.00
O30    O     0.06759   0.60128   0.06213   0.00000  Uiso   1.00
O31    O     0.04785   0.51294   0.24680   0.00000  Uiso   1.00
O32    O     0.92271   0.59344   0.06513   0.00000  Uiso   1.00
O33    O     0.96788   0.53207   0.25066   0.00000  Uiso   1.00
C34    C     0.14065   0.63826   1.06371   0.00000  Uiso   1.00
C35    C     0.00797   0.52269   0.30321   0.00000  Uiso   1.00
O36    O     0.16031   0.54850   0.05509   0.00000  Uiso   1.00
O37    O     0.07873   0.43677   1.04759   0.00000  Uiso   1.00
O38    O     0.85042   0.43085   0.05516   0.00000  Uiso   1.00
O39    O     0.94076   0.43253   1.05062   0.00000  Uiso   1.00
O40    O     0.47654   0.01554   0.09830   0.00000  Uiso   1.00
Yb41   Yb    0.53268   0.95348  -0.10930   0.00000  Uiso   1.00
C42    C     0.58131   0.89016   0.88250   0.00000  Uiso   1.00
Yb43   Yb    0.47501   0.02568   0.90982   0.00000  Uiso   1.00
O44    O     0.52709   0.96327   0.08699   0.00000  Uiso   1.00
C45    C     0.60536   0.12791   0.95833   0.00000  Uiso   1.00
C46    C     0.50575  -0.00654   0.14813   0.00000  Uiso   1.00
O47    O     0.49559   0.12264  -0.05713   0.00000  Uiso   1.00
C48    C     0.42969   0.09295  -0.06887   0.00000  Uiso   1.00
O49    O     0.45188   0.88374   0.00928   0.00000  Uiso   1.00
O50    O     0.42574   0.91809   0.86766   0.00000  Uiso   1.00
O51    O     0.53859   0.97296   0.70717   0.00000  Uiso   1.00
O52    O     0.38819   0.02699   0.90258   0.00000  Uiso   1.00
O53    O     0.49191   0.02932   0.72100   0.00000  Uiso   1.00
C54    C     0.40370   0.87779  -0.03942   0.00000  Uiso   1.00
C55    C     0.51691   0.00301   0.66053   0.00000  Uiso   1.00
O56    O     0.51692   0.85990   0.85073   0.00000  Uiso   1.00
O57    O     0.62025   0.95556  -0.08422   0.00000  Uiso   1.00
O58    O     0.56080   0.13559   0.95130   0.00000  Uiso   1.00
O59    O     0.57766   0.05934  -0.06802   0.00000  Uiso   1.00
C60    C     0.47003   0.43826   0.47135   0.00000  Uiso   1.00
C61    C     0.48823   0.49606   0.41869   0.00000  Uiso   1.00
C62    C     0.50609   0.55393   0.49224   0.00000  Uiso   1.00
C63    C     0.50509   0.55386   0.61535   0.00000  Uiso   1.00
C64    C     0.48706   0.49644   0.66837   0.00000  Uiso   1.00
C65    C     0.46935   0.43842   0.59484   0.00000  Uiso   1.00
H66    H     0.45656   0.39308   0.41718   0.00000  Uiso   1.00
H67    H     0.52069   0.59949   0.45478   0.00000  Uiso   1.00
H68    H     0.51833   0.59873   0.66886   0.00000  Uiso   1.00
H69    H     0.45539   0.39319   0.63275   0.00000  Uiso   1.00
C70    C     0.95733   0.52145   0.62099   0.00000  Uiso   1.00
C71    C     1.00067   0.51296   0.68238   0.00000  Uiso   1.00
C72    C     0.04711   0.50868   0.61806   0.00000  Uiso   1.00
C73    C     0.05000   0.51257   0.49551   0.00000  Uiso   1.00
C74    C     0.00675   0.52118   0.43407   0.00000  Uiso   1.00
C75    C     0.96036   0.52557   0.49850   0.00000  Uiso   1.00
H76    H     0.92100   0.52503   0.66766   0.00000  Uiso   1.00
H77    H     0.08168   0.50272   0.66245   0.00000  Uiso   1.00
H78    H     0.08620   0.50875   0.44895   0.00000  Uiso   1.00
H79    H     0.92579   0.53165   0.45442   0.00000  Uiso   1.00
C80    C     0.53511  -0.03146   0.33625   0.00000  Uiso   1.00
C81    C     0.51065  -0.00199   0.27937   0.00000  Uiso   1.00
C82    C     0.49162   1.03231   0.34920   0.00000  Uiso   1.00
C83    C     0.49539   1.03566   0.47312   0.00000  Uiso   1.00
C84    C     0.51837   0.00484   0.52996   0.00000  Uiso   1.00
C85    C     0.53879  -0.02818   0.45999   0.00000  Uiso   1.00
H86    H     0.55086  -0.05772   0.28517   0.00000  Uiso   1.00
H87    H     0.47340   1.05634   0.30828   0.00000  Uiso   1.00
H88    H     0.47933   1.06156   0.52406   0.00000  Uiso   1.00
H89    H     0.55660  -0.05267   0.50064   0.00000  Uiso   1.00
C90    C     0.31699   0.53903  -0.03981   0.00000  Uiso   1.00
C91    C     0.32505   0.50075   0.03035   0.00000  Uiso   1.00
C92    C     0.26841   0.44986   0.09395   0.00000  Uiso   1.00
C93    C     0.20593   0.44124   0.09370   0.00000  Uiso   1.00
C94    C     0.20080   0.48398   0.03039   0.00000  Uiso   1.00
C95    C     0.25547   0.53061  -0.03985   0.00000  Uiso   1.00
H96    H     0.35976   0.57785   0.90950   0.00000  Uiso   1.00
H97    H     0.27428   0.42037   0.14946   0.00000  Uiso   1.00
H98    H     0.16420   0.40529   0.14912   0.00000  Uiso   1.00
H99    H     0.25194   0.56301  -0.09105   0.00000  Uiso   1.00
C100   C     0.75970   0.29358   0.12668   0.00000  Uiso   1.00
C101   C     0.81287   0.31859   0.04667   0.00000  Uiso   1.00
C102   C     0.80135   0.27456  -0.05330   0.00000  Uiso   1.00
C103   C     0.73459   0.20841  -0.07843   0.00000  Uiso   1.00
C104   C     0.67947   0.18689   0.99617   0.00000  Uiso   1.00
C105   C     0.69343   0.22839   1.10139   0.00000  Uiso   1.00
H106   H     0.76728   0.32729   0.20319   0.00000  Uiso   1.00
H107   H     0.84134   0.29375  -0.11738   0.00000  Uiso   1.00
H108   H     0.72438   0.17682  -0.16052   0.00000  Uiso   1.00
H109   H     0.65145   0.21231   1.15987   0.00000  Uiso   1.00
C110   C     0.73238   0.47016   0.99507   0.00000  Uiso   1.00
C111   C     0.79520   0.53511   1.04130   0.00000  Uiso   1.00
C112   C     0.79390   0.58973   0.07600   0.00000  Uiso   1.00
C113   C     0.72896   0.57724   0.06956   0.00000  Uiso   1.00
C114   C     0.66577   0.51016   1.02946   0.00000  Uiso   1.00
C115   C     0.66915   0.45781   0.99102   0.00000  Uiso   1.00
H116   H     0.73098   0.42698   0.96548   0.00000  Uiso   1.00
H117   H     0.84184   0.64049   0.11157   0.00000  Uiso   1.00
H118   H     0.72758   0.61851   0.09995   0.00000  Uiso   1.00
H119   H     0.62157   0.40553   0.96143   0.00000  Uiso   1.00
C120   C     0.27510   0.78837  -0.09649   0.00000  Uiso   1.00
C121   C     0.33000   0.82935  -0.00656   0.00000  Uiso   1.00
C122   C     0.31506   0.81550   1.11215   0.00000  Uiso   1.00
C123   C     0.24766   0.75718   1.13905   0.00000  Uiso   1.00
C124   C     0.19475   0.71209   1.04754   0.00000  Uiso   1.00
C125   C     0.20801   0.72963  -0.06970   0.00000  Uiso   1.00
H126   H     0.28598   0.79746  -0.18903   0.00000  Uiso   1.00
H127   H     0.35700   0.84710   1.18272   0.00000  Uiso   1.00
H128   H     0.23842   0.74369   1.22956   0.00000  Uiso   1.00
H129   H     0.16918   0.69367  -0.14242   0.00000  Uiso   1.00
C130   C     0.64062   0.85652   0.99358   0.00000  Uiso   1.00
C131   C     0.60641   0.85048   0.88843   0.00000  Uiso   1.00
C132   C     0.58686   0.79885   0.79713   0.00000  Uiso   1.00
C133   C     0.59449   0.74932   0.81536   0.00000  Uiso   1.00
C134   C     0.62006   0.74957   0.92647   0.00000  Uiso   1.00
C135   C     0.64742   0.80646   1.01266   0.00000  Uiso   1.00
H136   H     0.65602   0.89597   1.06529   0.00000  Uiso   1.00
H137   H     0.56254   0.79473   0.71380   0.00000  Uiso   1.00
H138   H     0.57566   0.70826   0.74555   0.00000  Uiso   1.00
H139   H     0.66715   0.80839   1.09970   0.00000  Uiso   1.00
C140   C     0.41747   0.22136   0.09018   0.00000  Uiso   1.00
C141   C     0.39111   0.23569  -0.00062   0.00000  Uiso   1.00
C142   C     0.36715   0.19472   0.88925   0.00000  Uiso   1.00
C143   C     0.37388   0.14308  -0.13170   0.00000  Uiso   1.00
C144   C     0.40566   0.13313  -0.04304   0.00000  Uiso   1.00
C145   C     0.42463   0.17056   0.06916   0.00000  Uiso   1.00
H146   H     0.43856   0.25392   0.17439   0.00000  Uiso   1.00
H147   H     0.34835   0.20624   0.81707   0.00000  Uiso   1.00
H148   H     0.35910   0.11458   0.78090   0.00000  Uiso   1.00
H149   H     0.45017   0.16425   0.13793   0.00000  Uiso   1.00
loop_
_geom_bond_atom_site_label_1
_geom_bond_atom_site_label_2
_geom_bond_distance
_geom_bond_site_symmetry_2
_ccdc_geom_bond_type
O0     C6      1.314   .     A
O0     Yb3     2.237   1_556 S
Yb1    O4      2.128   .     S
Yb1    O9      2.114   .     S
Yb1    O17     2.174   .     S
Yb1    O19     2.141   .     S
Yb1    Yb3     2.834   1_556 S
Yb1    O10     2.261   1_556 S
Yb1    O11     2.162   1_556 S
Yb1    O16     2.133   1_556 S
C2     O16     1.277   .     A
C2     C141    1.469   .     S
C2     O17     1.281   1_554 A
Yb3    O10     2.139   .     S
Yb3    O12     2.109   .     S
Yb3    O13     2.150   .     S
Yb3    O18     2.091   .     S
Yb3    O0      2.237   1_554 S
Yb3    Yb1     2.834   1_554 S
Yb3    O7      2.135   1_554 S
Yb3    O19     2.169   1_554 S
O4     C6      1.292   .     A
C5     O18     1.225   .     D
C5     C91     1.466   .     S
C5     O19     1.412   1_554 S
C6     C64     1.483   .     S
O7     C8      1.301   .     A
O7     Yb3     2.135   1_556 S
C8     C134    1.485   .     S
C8     O12     1.283   1_556 A
O9     C14     1.228   .     D
O10    Yb1     2.261   1_554 S
O10    C14     1.405   1_554 S
O11    C15     1.296   .     A
O11    Yb1     2.162   1_554 S
O12    C8      1.283   1_554 A
O13    C15     1.293   .     A
C14    C114    1.479   .     S
C14    O10     1.405   1_556 S
C15    C61     1.480   .     S
O16    Yb1     2.133   1_554 S
O17    C2      1.281   1_556 A
O19    Yb3     2.169   1_556 S
O19    C5      1.412   1_556 S
O20    C26     1.304   .     A
O20    Yb23    2.164   .     S
Yb21   O30     2.198   .     S
Yb21   O31     2.164   .     S
Yb21   O36     2.127   .     S
Yb21   Yb23    2.826   1_454 S
Yb21   O24     2.168   1_554 S
Yb21   O29     2.137   1_554 S
Yb21   O37     2.166   1_554 S
Yb21   O39     2.108   1_454 S
C22    O36     1.281   .     A
C22    C94     1.466   .     S
C22    O37     1.278   1_554 A
Yb23   O27     2.113   .     S
Yb23   O39     2.212   .     S
Yb23   Yb21    2.826   1_656 S
Yb23   O30     2.127   1_656 S
Yb23   O32     2.197   1_556 S
Yb23   O33     2.167   1_556 S
Yb23   O38     2.143   1_556 S
O24    Yb21    2.168   1_556 S
O24    C26     1.305   1_455 A
C25    O38     1.223   .     D
C25    C101    1.466   .     S
C25    O39     1.396   1_554 S
C26    C71     1.485   .     S
C26    O24     1.305   1_655 A
O27    C28     1.277   .     A
C28    C111    1.477   .     S
C28    O32     1.281   1_556 A
O29    C34     1.226   .     D
O29    Yb21    2.137   1_556 S
O30    Yb23    2.127   1_454 S
O30    C34     1.399   1_554 S
O31    C35     1.305   .     A
O32    Yb23    2.197   1_554 S
O32    C28     1.281   1_554 A
O33    Yb23    2.167   1_554 S
O33    C35     1.305   1_655 A
C34    C124    1.464   .     S
C34    O30     1.399   1_556 S
C35    C74     1.486   .     S
C35    O33     1.305   1_455 A
O37    Yb21    2.166   1_556 S
O37    C22     1.278   1_556 A
O38    Yb23    2.143   1_554 S
O39    Yb21    2.108   1_656 S
O39    C25     1.396   1_556 S
O40    C46     1.305   .     A
O40    Yb43    2.175   1_554 S
Yb41   O44     2.229   .     S
Yb41   O49     2.181   .     S
Yb41   O57     2.138   .     S
Yb41   Yb43    2.920   1_564 S
Yb41   O50     2.179   1_554 S
Yb41   O51     2.159   1_554 S
Yb41   O56     2.124   1_554 S
Yb41   O59     2.127   1_565 S
C42    O56     1.278   .     A
C42    C131    1.472   .     S
C42    O57     1.280   1_556 A
Yb43   O52     2.156   .     S
Yb43   O53     2.176   .     S
Yb43   O58     2.151   .     S
Yb43   O40     2.175   1_556 S
Yb43   Yb41    2.920   1_546 S
Yb43   O47     2.139   1_556 S
Yb43   O50     2.140   1_545 S
Yb43   O59     2.095   1_556 S
O44    C46     1.319   1_565 A
C45    O58     1.230   .     D
C45    C104    1.465   .     S
C45    O59     1.388   1_556 S
C46    C81     1.481   .     S
C46    O44     1.319   1_545 A
O47    C48     1.281   .     A
O47    Yb43    2.139   1_554 S
C48    C144    1.468   .     S
C48    O52     1.279   1_554 A
O49    C54     1.222   .     D
O50    Yb41    2.179   1_556 S
O50    Yb43    2.140   1_565 S
O50    C54     1.379   1_556 S
O51    Yb41    2.159   1_556 S
O51    C55     1.308   1_565 A
O52    C48     1.279   1_556 A
O53    C55     1.310   .     A
C54    C121    1.470   .     S
C54    O50     1.379   1_554 S
C55    C84     1.483   .     S
C55    O51     1.308   1_545 A
O56    Yb41    2.124   1_556 S
O57    C42     1.280   1_554 A
O59    Yb41    2.127   1_545 S
O59    Yb43    2.095   1_554 S
O59    C45     1.388   1_554 S
C60    C61     1.405   .     A
C60    C65     1.399   .     A
C60    H66     1.082   .     S
C61    C62     1.405   .     A
C62    C63     1.395   .     A
C62    H67     1.082   .     S
C63    C64     1.400   .     A
C63    H68     1.075   .     S
C64    C65     1.409   .     A
C65    H69     1.083   .     S
C70    C71     1.408   .     A
C70    C75     1.398   .     A
C70    H76     1.084   .     S
C71    C72     1.407   1_655 A
C72    C73     1.398   .     A
C72    H77     1.084   .     S
C72    C71     1.407   1_455 A
C73    C74     1.408   .     A
C73    H78     1.084   .     S
C74    C75     1.408   1_455 A
C75    H79     1.084   .     S
C75    C74     1.408   1_655 A
C80    C81     1.404   .     A
C80    C85     1.397   .     A
C80    H86     1.084   .     S
C81    C82     1.406   1_545 A
C82    C83     1.399   .     A
C82    H87     1.082   .     S
C82    C81     1.406   1_565 A
C83    H88     1.082   .     S
C83    C84     1.405   1_565 A
C84    C85     1.406   .     A
C84    C83     1.405   1_545 A
C85    H89     1.083   .     S
C90    C91     1.402   .     A
C90    C95     1.387   .     A
C90    H96     1.081   1_554 S
C91    C92     1.403   .     A
C92    C93     1.407   .     A
C92    H97     1.085   .     S
C93    C94     1.408   .     A
C93    H98     1.082   .     S
C94    C95     1.397   .     A
C95    H99     1.083   .     S
H96    C90     1.081   1_556 S
C100   C101    1.402   .     A
C100   H106    1.083   .     S
C100   C105    1.390   1_554 A
C101   C102    1.403   .     A
C102   C103    1.404   .     A
C102   H107    1.084   .     S
C103   H108    1.084   .     S
C103   C104    1.406   1_554 A
C104   C105    1.398   .     A
C104   C103    1.406   1_556 A
C105   H109    1.084   .     S
C105   C100    1.390   1_556 A
C110   C111    1.400   .     A
C110   C115    1.377   .     A
C110   H116    1.084   .     S
C111   C112    1.411   1_556 A
C112   C113    1.418   .     A
C112   H117    1.082   .     S
C112   C111    1.411   1_554 A
C113   H118    1.083   .     S
C113   C114    1.409   1_554 A
C114   C115    1.399   .     A
C114   C113    1.409   1_556 A
C115   H119    1.081   .     S
C120   C121    1.405   .     A
C120   C125    1.398   .     A
C120   H126    1.088   .     S
C121   C122    1.406   1_554 A
C122   C123    1.399   .     A
C122   H127    1.088   .     S
C122   C121    1.406   1_556 A
C123   C124    1.406   .     A
C123   H128    1.085   .     S
C124   C125    1.406   1_556 A
C125   H129    1.087   .     S
C125   C124    1.406   1_554 A
C130   C131    1.401   .     A
C130   C135    1.401   .     A
C130   H136    1.080   .     S
C131   C132    1.398   .     A
C132   C133    1.400   .     A
C132   H137    1.080   .     S
C133   C134    1.406   .     A
C133   H138    1.074   .     S
C134   C135    1.407   .     A
C135   H139    1.084   .     S
C140   C141    1.404   .     A
C140   C145    1.393   .     A
C140   H146    1.084   .     S
C141   C142    1.404   1_554 A
C142   H147    1.086   .     S
C142   C141    1.404   1_556 A
C142   C143    1.406   1_556 A
C143   C144    1.406   .     A
C143   C142    1.406   1_554 A
C143   H148    1.083   1_554 S
C144   C145    1.398   .     A
C145   H149    1.085   .     S
H148   C143    1.083   1_556 S
