data_kag+N139+E35
_audit_creation_date              2025-01-21
_audit_creation_method            'Materials Studio'
_symmetry_space_group_name_H-M    'P1'
_symmetry_Int_Tables_number       1
_symmetry_cell_setting            triclinic
loop_
_symmetry_equiv_pos_as_xyz
  x,y,z
_cell_length_a                    33.8869
_cell_length_b                    27.1089
_cell_length_c                    19.4712
_cell_angle_alpha                 88.5180
_cell_angle_beta                  88.8727
_cell_angle_gamma                 121.7777
loop_
_atom_site_label
_atom_site_type_symbol
_atom_site_fract_x
_atom_site_fract_y
_atom_site_fract_z
_atom_site_U_iso_or_equiv
_atom_site_adp_type
_atom_site_occupancy
C0     C     0.52125   0.50522   0.75179   0.00000  Uiso   1.00
Sm1    Sm    0.47006   0.49883   0.10972   0.00000  Uiso   1.00
Sm2    Sm    0.53043   0.49871   0.88542   0.00000  Uiso   1.00
C3     C     0.49911   0.42557   0.02980   0.00000  Uiso   1.00
C4     C     0.59930   0.48321   0.91157   0.00000  Uiso   1.00
O5     O     0.51694   0.53505   0.19729   0.00000  Uiso   1.00
O6     O     0.44547   0.46559   0.21746   0.00000  Uiso   1.00
O7     O     0.51242   0.56702   0.90461   0.00000  Uiso   1.00
O8     O     0.51212   0.54704   0.01300   0.00000  Uiso   1.00
O9     O     0.40320   0.46537   1.05743   0.00000  Uiso   1.00
O10    O     0.43080   0.54345   0.11470   0.00000  Uiso   1.00
O11    O     0.48728   0.46921   0.79243   0.00000  Uiso   1.00
O12    O     0.55944   0.53791   0.78116   0.00000  Uiso   1.00
O13    O     0.49194   0.43442   0.09150   0.00000  Uiso   1.00
O14    O     0.48733   0.44704   0.98118   0.00000  Uiso   1.00
O15    O     0.59721   0.52550  -0.06477   0.00000  Uiso   1.00
O16    O     0.56489   0.44840   0.87594   0.00000  Uiso   1.00
C17    C     0.48506   0.50119   0.24204   0.00000  Uiso   1.00
C18    C     0.50453   0.57428   0.96648   0.00000  Uiso   1.00
C19    C     0.39799   0.50613   0.07838   0.00000  Uiso   1.00
C20    C     1.01387   0.49648   0.24637   0.00000  Uiso   1.00
Sm21   Sm    0.97944   0.50883   0.88892   0.00000  Uiso   1.00
Sm22   Sm    0.02840   0.50355   0.11256   0.00000  Uiso   1.00
C23    C     0.06418   0.58399   0.97540   0.00000  Uiso   1.00
C24    C     0.10704   0.51124   0.07828   0.00000  Uiso   1.00
O25    O     1.00252   0.47816   0.80086   0.00000  Uiso   1.00
O26    O    -0.01230   0.54585   0.78304   0.00000  Uiso   1.00
O27    O     0.95268   0.44040   0.09330   0.00000  Uiso   1.00
O28    O     0.97539   0.45784   0.98555   0.00000  Uiso   1.00
O29    O     0.93212   0.53421  -0.06522   0.00000  Uiso   1.00
O30    O     0.90354   0.45786   0.87422   0.00000  Uiso   1.00
O31    O     0.01205   0.53423   0.20771   0.00000  Uiso   1.00
O32    O     1.02195   0.46165   0.21484   0.00000  Uiso   1.00
O33    O     0.05349   0.57681   0.91266   0.00000  Uiso   1.00
O34    O     0.03152   0.55893   0.02103   0.00000  Uiso   1.00
O35    O     0.06809   0.47254   1.05473   0.00000  Uiso   1.00
O36    O     0.10499   0.54685   0.11802   0.00000  Uiso   1.00
C37    C    -0.00067   0.51210   0.75731   0.00000  Uiso   1.00
C38    C     0.94225   0.43325   0.03055   0.00000  Uiso   1.00
C39    C     0.89606   0.49188   0.90871   0.00000  Uiso   1.00
C40    C     0.48921  -0.02358   0.24384   0.00000  Uiso   1.00
Sm41   Sm    0.53880   0.04503   0.88659   0.00000  Uiso   1.00
Sm42   Sm    0.47302   0.96419   0.11105   0.00000  Uiso   1.00
C43    C     0.49850   0.92852   0.96698   0.00000  Uiso   1.00
C44    C     0.39170   0.87474   0.08011   0.00000  Uiso   1.00
O45    O     0.50023   0.03316   0.78991   0.00000  Uiso   1.00
O46    O     0.56730   1.04226   0.78362   0.00000  Uiso   1.00
O47    O     0.50597   0.06088   0.09092   0.00000  Uiso   1.00
O48    O     0.49794   0.04523   0.98074   0.00000  Uiso   1.00
O49    O     0.60421   0.08430  -0.05725   0.00000  Uiso   1.00
O50    O     0.58932   0.14115   0.88427   0.00000  Uiso   1.00
O51    O     0.51825   0.97753   0.19951   0.00000  Uiso   1.00
O52    O     0.45156  -0.03196   0.21880   0.00000  Uiso   1.00
O53    O     0.50685   0.94795   0.90478   0.00000  Uiso   1.00
O54    O     0.51024   0.96562   0.01291   0.00000  Uiso   1.00
O55    O     0.40560   0.92707   1.06068   0.00000  Uiso   1.00
O56    O     0.42090   0.86847   0.11424   0.00000  Uiso   1.00
C57    C     0.53213   1.03477   0.75147   0.00000  Uiso   1.00
C58    C     0.51302   0.08107   0.02887   0.00000  Uiso   1.00
C59    C     0.61786   0.13620   0.92176   0.00000  Uiso   1.00
C60    C     0.50705   0.50954   0.45791   0.00000  Uiso   1.00
C61    C     0.54510   0.54177   0.41113   0.00000  Uiso   1.00
C62    C     0.53791   0.53897   0.34067   0.00000  Uiso   1.00
C63    C     0.49318   0.50354   0.31639   0.00000  Uiso   1.00
C64    C     0.45628   0.47094   0.36440   0.00000  Uiso   1.00
N65    N     0.46401   0.47486   0.43285   0.00000  Uiso   1.00
C66    C     0.51197   0.51107   0.53358   0.00000  Uiso   1.00
N67    N     0.47564   0.47002   0.57443   0.00000  Uiso   1.00
C68    C     0.47730   0.46790   0.64411   0.00000  Uiso   1.00
C69    C     0.51751   0.50858   0.67669   0.00000  Uiso   1.00
C70    C     0.55503   0.55200   0.63604   0.00000  Uiso   1.00
C71    C     0.55236   0.55371   0.56475   0.00000  Uiso   1.00
H72    H     0.56738   0.56440   0.30518   0.00000  Uiso   1.00
H73    H     0.42123   0.44294   0.34769   0.00000  Uiso   1.00
H74    H     0.44752   0.43396   0.67381   0.00000  Uiso   1.00
H75    H     0.58653   0.58467   0.65937   0.00000  Uiso   1.00
H76    H     0.58023   0.56844   0.42781   0.00000  Uiso   1.00
H77    H     0.58168   0.58845   0.53535   0.00000  Uiso   1.00
C78    C     0.00865   0.50056   0.54064   0.00000  Uiso   1.00
C79    C     0.01720   0.46549   0.58467   0.00000  Uiso   1.00
C80    C     0.01548   0.47036   0.65560   0.00000  Uiso   1.00
C81    C     0.00591   0.51045   0.68272   0.00000  Uiso   1.00
C82    C     0.99933   0.54618   0.63720   0.00000  Uiso   1.00
N83    N     1.00067   0.54025   0.56835   0.00000  Uiso   1.00
C84    C     1.00819   0.49640   0.46502   0.00000  Uiso   1.00
N85    N     1.01005   0.53997   0.42577   0.00000  Uiso   1.00
C86    C     1.01033   0.54006   0.35601   0.00000  Uiso   1.00
C87    C     1.00909   0.49449   0.32177   0.00000  Uiso   1.00
C88    C     0.00604   0.44845   0.36093   0.00000  Uiso   1.00
C89    C     0.00513   0.44888   0.43244   0.00000  Uiso   1.00
H90    H     0.02091   0.44217   0.68921   0.00000  Uiso   1.00
H91    H     0.99209   0.57790   0.65617   0.00000  Uiso   1.00
H92    H     1.01255   0.57630   0.32752   0.00000  Uiso   1.00
H93    H     0.00455   0.41218   0.33625   0.00000  Uiso   1.00
H94    H     0.02524   0.43465   0.56540   0.00000  Uiso   1.00
H95    H     0.00171   0.41206   0.46104   0.00000  Uiso   1.00
C96    C     0.51531   0.00332   0.45857   0.00000  Uiso   1.00
C97    C     0.55077   0.01046   0.41256   0.00000  Uiso   1.00
C98    C     0.54208   0.00092   0.34270   0.00000  Uiso   1.00
C99    C     0.49851  -0.01503   0.31804   0.00000  Uiso   1.00
C100   C     0.46418  -0.02127   0.36526   0.00000  Uiso   1.00
N101   N     0.47332  -0.01212   0.43308   0.00000  Uiso   1.00
C102   C     0.52175   1.01257   0.53379   0.00000  Uiso   1.00
N103   N     0.48764   1.01240   0.57240   0.00000  Uiso   1.00
C104   C     0.49019   1.01981   0.64144   0.00000  Uiso   1.00
C105   C     0.52890   1.02789   0.67612   0.00000  Uiso   1.00
C106   C     0.56451   1.02822   0.63769   0.00000  Uiso   1.00
C107   C     0.56108   1.02038   0.56694   0.00000  Uiso   1.00
H108   H     0.56965   0.00666   0.30786   0.00000  Uiso   1.00
H109   H     0.43007  -0.03344   0.34842   0.00000  Uiso   1.00
H110   H     0.46188   1.01912   0.66909   0.00000  Uiso   1.00
H111   H     0.59495   1.03403   0.66243   0.00000  Uiso   1.00
H112   H     0.58509   1.02385   0.42912   0.00000  Uiso   1.00
H113   H     0.58889   1.01983   0.53968   0.00000  Uiso   1.00
C114   C     0.27592   0.51147   1.04701   0.00000  Uiso   1.00
C115   C     0.27952   0.46647   1.01932   0.00000  Uiso   1.00
C116   C     0.31996   0.46556   1.02785   0.00000  Uiso   1.00
C117   C     0.35681   0.50921   1.06356   0.00000  Uiso   1.00
C118   C     0.35265   0.55442   0.08815   0.00000  Uiso   1.00
N119   N     0.31282   0.55409   0.07988   0.00000  Uiso   1.00
C120   C     0.23256   0.51262   1.04692   0.00000  Uiso   1.00
N121   N     0.23094   0.55310   0.08481   0.00000  Uiso   1.00
C122   C     0.19190   0.55497   0.09301   0.00000  Uiso   1.00
C123   C     0.15081   0.51372   1.06282   0.00000  Uiso   1.00
C124   C     0.15180   0.47293   1.02126   0.00000  Uiso   1.00
C125   C     0.19253   0.47219   1.01300   0.00000  Uiso   1.00
H126   H     0.32193   0.42992   1.00800   0.00000  Uiso   1.00
H127   H     0.38043   0.58920   0.11559   0.00000  Uiso   1.00
H128   H     0.19276   0.58771   0.12471   0.00000  Uiso   1.00
H129   H     0.12083   0.44079   0.99640   0.00000  Uiso   1.00
H130   H     0.25141   0.43122   0.99321   0.00000  Uiso   1.00
H131   H     0.19178   0.43959   0.98142   0.00000  Uiso   1.00
C132   C     0.80157   0.32088  -0.02132   0.00000  Uiso   1.00
C133   C     0.81177   0.36208   0.02845   0.00000  Uiso   1.00
C134   C     0.85797   0.39948   0.04566   0.00000  Uiso   1.00
C135   C     0.89363   0.39692   0.01145   0.00000  Uiso   1.00
C136   C     0.88197   0.35595  -0.03885   0.00000  Uiso   1.00
N137   N     0.83680   0.31889  -0.05308   0.00000  Uiso   1.00
C138   C     0.75352   0.27553  -0.03520   0.00000  Uiso   1.00
N139   N     0.74378   0.22051  -0.04206   0.00000  Uiso   1.00
C140   C     0.70050   0.17575  -0.05442   0.00000  Uiso   1.00
C141   C     0.66410   0.18542  -0.06274   0.00000  Uiso   1.00
C142   C     0.67329   0.24203  -0.05734   0.00000  Uiso   1.00
C143   C     0.71796   0.28718  -0.04209   0.00000  Uiso   1.00
H144   H     0.86590   0.43053   0.08508   0.00000  Uiso   1.00
H145   H     0.90866   0.35239  -0.06548   0.00000  Uiso   1.00
H146   H     0.69479   0.13276  -0.05902   0.00000  Uiso   1.00
H147   H     0.64596   0.25104  -0.06381   0.00000  Uiso   1.00
H148   H     0.78429   0.36388   0.05530   0.00000  Uiso   1.00
H149   H     0.72477   0.33056  -0.03671   0.00000  Uiso   1.00
C150   C     0.76175   0.46909  -0.07181   0.00000  Uiso   1.00
C151   C     0.76879   0.43304   0.88569   0.00000  Uiso   1.00
C152   C     0.81238   0.43955   0.88097   0.00000  Uiso   1.00
C153   C     0.84933   0.48269  -0.08299   0.00000  Uiso   1.00
C154   C     0.84102   0.51754  -0.04071   0.00000  Uiso   1.00
N155   N     0.79813   0.51022  -0.03663   0.00000  Uiso   1.00
C156   C     0.71744   0.46775  -0.06932   0.00000  Uiso   1.00
N157   N     0.71808   0.51591  -0.04924   0.00000  Uiso   1.00
C158   C     0.68014   0.52064  -0.05158   0.00000  Uiso   1.00
C159   C     0.63872   0.47569  -0.07717   0.00000  Uiso   1.00
C160   C     0.63653   0.42466   0.90451   0.00000  Uiso   1.00
C161   C     0.67552   0.42009   0.90936   0.00000  Uiso   1.00
H162   H     0.81741   0.41161   0.84794   0.00000  Uiso   1.00
H163   H     0.86866   0.55119  -0.01189   0.00000  Uiso   1.00
H164   H     0.68307   0.56050  -0.03626   0.00000  Uiso   1.00
H165   H     0.60490   0.38865   0.88547   0.00000  Uiso   1.00
H166   H     0.74161   0.40105   0.85486   0.00000  Uiso   1.00
H167   H     0.67267   0.37997   0.89571   0.00000  Uiso   1.00
C168   C     0.25412   0.73805   1.04040   0.00000  Uiso   1.00
C169   C     0.28942   0.72553   1.04278   0.00000  Uiso   1.00
C170   C     0.33474   0.76988   1.05677   0.00000  Uiso   1.00
C171   C     0.34465   0.82639   1.06625   0.00000  Uiso   1.00
C172   C     0.30838   0.83679   1.06312   0.00000  Uiso   1.00
N173   N     0.26461   0.79292   1.05124   0.00000  Uiso   1.00
C174   C     0.20569   0.69385   1.02628   0.00000  Uiso   1.00
N175   N     0.17083   0.69420   1.06180   0.00000  Uiso   1.00
C176   C     0.12539   0.65809   1.04783   0.00000  Uiso   1.00
C177   C     0.11308   0.62009   0.99382   0.00000  Uiso   1.00
C178   C     0.14839   0.61937   0.95593   0.00000  Uiso   1.00
C179   C     0.19479   0.65555   0.97278   0.00000  Uiso   1.00
H180   H     0.36205   0.76045   1.05897   0.00000  Uiso   1.00
H181   H     0.31464   0.87968   1.07098   0.00000  Uiso   1.00
H182   H     0.09905   0.66017   1.07771   0.00000  Uiso   1.00
H183   H     0.13997   0.59058   0.91378   0.00000  Uiso   1.00
H184   H     0.28192   0.68205   1.03489   0.00000  Uiso   1.00
H185   H     0.22189   0.65520   0.94283   0.00000  Uiso   1.00
C186   C     0.46905   0.75682   1.00118   0.00000  Uiso   1.00
C187   C     0.48385   0.79465   1.05612   0.00000  Uiso   1.00
C188   C     0.48991   0.84953   1.04682   0.00000  Uiso   1.00
C189   C     0.48035   0.86652   0.98382   0.00000  Uiso   1.00
C190   C     0.46167   0.82566   0.93260   0.00000  Uiso   1.00
N191   N     0.45729   0.77313   0.94207   0.00000  Uiso   1.00
C192   C     0.47149   0.70358   1.00094   0.00000  Uiso   1.00
N193   N     0.45758   0.67117   0.94398   0.00000  Uiso   1.00
C194   C     0.46503   0.62723   0.93388   0.00000  Uiso   1.00
C195   C     0.48878   0.61437   0.98224   0.00000  Uiso   1.00
C196   C     0.50245   0.64593   1.04214   0.00000  Uiso   1.00
C197   C     0.49337   0.68990   1.05224   0.00000  Uiso   1.00
H198   H     0.50470   0.87992   1.08755   0.00000  Uiso   1.00
H199   H     0.45357   0.83682   0.88331   0.00000  Uiso   1.00
H200   H     0.45408   0.60398   0.88679   0.00000  Uiso   1.00
H201   H     0.52164   0.63796   1.08008   0.00000  Uiso   1.00
H202   H     0.49300   0.78401   1.10467   0.00000  Uiso   1.00
H203   H     0.50573   0.71422   1.09816   0.00000  Uiso   1.00
C204   C     0.54494   0.30771   0.00550   0.00000  Uiso   1.00
C205   C     0.56570   0.35079   0.05438   0.00000  Uiso   1.00
C206   C     0.55224   0.39119   0.06044   0.00000  Uiso   1.00
C207   C     0.51933   0.38993   0.01680   0.00000  Uiso   1.00
C208   C     0.50200   0.34914   0.96560   0.00000  Uiso   1.00
N209   N     0.51458   0.30925   0.96190   0.00000  Uiso   1.00
C210   C     0.54947   0.25610   0.00503   0.00000  Uiso   1.00
N211   N     0.52900   0.21818   0.95396   0.00000  Uiso   1.00
C212   C     0.52188   0.16393   0.95668   0.00000  Uiso   1.00
C213   C     0.53386   0.14399   0.01498   0.00000  Uiso   1.00
C214   C     0.55801   0.18342   0.06600   0.00000  Uiso   1.00
C215   C     0.56623   0.23959   0.06112   0.00000  Uiso   1.00
H216   H     0.56670   0.42265   0.10014   0.00000  Uiso   1.00
H217   H     0.47667   0.34705   0.93082   0.00000  Uiso   1.00
H218   H     0.50325   0.13493   0.91608   0.00000  Uiso   1.00
H219   H     0.56778   0.16959   0.11188   0.00000  Uiso   1.00
H220   H     0.59087   0.35268   0.08915   0.00000  Uiso   1.00
H221   H     0.58219   0.26733   0.10366   0.00000  Uiso   1.00
loop_
_geom_bond_atom_site_label_1
_geom_bond_atom_site_label_2
_geom_bond_distance
_geom_bond_site_symmetry_2
_ccdc_geom_bond_type
C0     O11     1.283   .     A
C0     O12     1.278   .     A
C0     C69     1.475   .     S
Sm1    O5      2.224   .     S
Sm1    O6      2.225   .     S
Sm1    O8      2.256   .     S
Sm1    O10     2.223   .     S
Sm1    O13     2.260   .     S
Sm1    O9      2.229   1_554 S
Sm2    O7      2.271   .     S
Sm2    O11     2.237   .     S
Sm2    O12     2.220   .     S
Sm2    O14     2.275   .     S
Sm2    O16     2.223   .     S
Sm2    O15     2.232   1_556 S
C3     O13     1.275   .     A
C3     C207    1.473   .     S
C3     O14     1.275   1_554 A
C4     O16     1.280   .     A
C4     O15     1.282   1_556 A
C4     C159    1.473   1_556 S
O5     C17     1.283   .     A
O6     C17     1.283   .     A
O7     C18     1.271   .     A
O8     C18     1.268   1_554 A
O9     Sm1     2.229   1_556 S
O9     C19     1.282   1_556 A
O10    C19     1.282   .     A
O14    C3      1.275   1_556 A
O15    Sm2     2.232   1_554 S
O15    C4      1.282   1_554 A
C17    C63     1.476   .     S
C18    C195    1.477   .     S
C18    O8      1.268   1_556 A
C19    O9      1.282   1_554 A
C19    C117    1.475   1_554 S
C20    O32     1.280   .     A
C20    C87     1.470   .     S
C20    O31     1.283   1_655 A
Sm21   O25     2.225   .     S
Sm21   O28     2.264   .     S
Sm21   O30     2.217   .     S
Sm21   O26     2.216   1_655 S
Sm21   O29     2.232   1_556 S
Sm21   O33     2.264   1_655 S
Sm22   O31     2.226   .     S
Sm22   O34     2.265   .     S
Sm22   O36     2.221   .     S
Sm22   O27     2.258   1_455 S
Sm22   O32     2.216   1_455 S
Sm22   O35     2.228   1_554 S
C23    O33     1.272   .     A
C23    C177    1.472   .     S
C23    O34     1.271   1_556 A
C24    O36     1.282   .     A
C24    O35     1.282   1_554 A
C24    C123    1.474   1_554 S
O25    C37     1.283   1_655 A
O26    C37     1.280   .     A
O26    Sm21    2.216   1_455 S
O27    C38     1.270   .     A
O27    Sm22    2.258   1_655 S
O28    C38     1.271   1_556 A
O29    Sm21    2.232   1_554 S
O29    C39     1.283   1_554 A
O30    C39     1.280   .     A
O31    C20     1.283   1_455 A
O32    Sm22    2.216   1_655 S
O33    Sm21    2.264   1_455 S
O34    C23     1.271   1_554 A
O35    Sm22    2.228   1_556 S
O35    C24     1.282   1_556 A
C37    C81     1.470   .     S
C37    O25     1.283   1_455 A
C38    C135    1.469   .     S
C38    O28     1.271   1_554 A
C39    O29     1.283   1_556 A
C39    C153    1.472   1_556 S
C40    O52     1.281   .     A
C40    C99     1.483   .     S
C40    O51     1.284   1_545 A
Sm41   O45     2.245   .     S
Sm41   O48     2.277   .     S
Sm41   O50     2.240   .     S
Sm41   O46     2.228   1_545 S
Sm41   O49     2.216   1_556 S
Sm41   O53     2.271   1_545 S
Sm42   O51     2.236   .     S
Sm42   O54     2.257   .     S
Sm42   O56     2.240   .     S
Sm42   O47     2.262   1_565 S
Sm42   O52     2.230   1_565 S
Sm42   O55     2.216   1_554 S
C43    O53     1.273   .     A
C43    C189    1.479   .     S
C43    O54     1.268   1_556 A
C44    O56     1.284   .     A
C44    O55     1.280   1_554 A
C44    C171    1.472   1_554 S
O45    C57     1.283   1_545 A
O46    C57     1.278   .     A
O46    Sm41    2.228   1_565 S
O47    C58     1.278   .     A
O47    Sm42    2.262   1_545 S
O48    C58     1.275   1_556 A
O49    Sm41    2.216   1_554 S
O49    C59     1.280   1_554 A
O50    C59     1.283   .     A
O51    C40     1.284   1_565 A
O52    Sm42    2.230   1_545 S
O53    Sm41    2.271   1_565 S
O54    C43     1.268   1_554 A
O55    Sm42    2.216   1_556 S
O55    C44     1.280   1_556 A
C57    C105    1.483   .     S
C57    O45     1.283   1_565 A
C58    C213    1.477   .     S
C58    O48     1.275   1_554 A
C59    O49     1.280   1_556 A
C59    C141    1.471   1_556 S
C60    C61     1.408   .     A
C60    N65     1.363   .     A
C60    C66     1.485   .     S
C61    C62     1.395   .     A
C61    H76     1.080   .     S
C62    C63     1.401   .     A
C62    H72     1.083   .     S
C63    C64     1.402   .     A
C64    N65     1.359   .     A
C64    H73     1.082   .     S
C66    N67     1.363   .     A
C66    C71     1.407   .     A
N67    C68     1.360   .     A
C68    C69     1.401   .     A
C68    H74     1.082   .     S
C69    C70     1.401   .     A
C70    C71     1.394   .     A
C70    H75     1.084   .     S
C71    H77     1.080   .     S
C78    C79     1.407   .     A
C78    N83     1.361   1_455 A
C78    C84     1.479   1_455 S
C79    C80     1.394   .     A
C79    H94     1.080   .     S
C80    C81     1.400   .     A
C80    H90     1.083   .     S
C81    C82     1.402   1_455 A
C82    N83     1.357   .     A
C82    H91     1.082   .     S
C82    C81     1.402   1_655 A
N83    C78     1.361   1_655 A
C84    N85     1.362   .     A
C84    C78     1.479   1_655 S
C84    C89     1.406   1_655 A
N85    C86     1.358   .     A
C86    C87     1.400   .     A
C86    H92     1.082   .     S
C87    C88     1.401   1_655 A
C88    C89     1.393   .     A
C88    H93     1.083   .     S
C88    C87     1.401   1_455 A
C89    H95     1.080   .     S
C89    C84     1.406   1_455 A
C96    C97     1.410   .     A
C96    N101    1.363   .     A
C96    C102    1.493   1_545 S
C97    C98     1.399   .     A
C97    H112    1.079   1_545 S
C98    C99     1.402   .     A
C98    H108    1.083   .     S
C99    C100    1.403   .     A
C100   N101    1.361   .     A
C100   H109    1.082   .     S
C102   N103    1.364   .     A
C102   C107    1.408   .     A
C102   C96     1.493   1_565 S
N103   C104    1.362   .     A
C104   C105    1.402   .     A
C104   H110    1.082   .     S
C105   C106    1.403   .     A
C106   C107    1.397   .     A
C106   H111    1.083   .     S
C107   H113    1.079   .     S
H112   C97     1.079   1_565 S
C114   C115    1.408   .     A
C114   C120    1.486   .     S
C114   N119    1.362   1_556 A
C115   C116    1.397   .     A
C115   H130    1.079   .     S
C116   C117    1.401   .     A
C116   H126    1.083   .     S
C117   C118    1.401   1_556 A
C117   C19     1.475   1_556 S
C118   N119    1.358   .     A
C118   H127    1.082   .     S
C118   C117    1.401   1_554 A
N119   C114    1.362   1_554 A
C120   C125    1.409   .     A
C120   N121    1.362   1_556 A
N121   C122    1.357   .     A
N121   C120    1.362   1_554 A
C122   H128    1.082   .     S
C122   C123    1.400   1_554 A
C123   C124    1.401   .     A
C123   C122    1.400   1_556 A
C123   C24     1.474   1_556 S
C124   C125    1.397   .     A
C124   H129    1.083   .     S
C125   H131    1.079   .     S
C132   C133    1.403   .     A
C132   N137    1.361   .     A
C132   C138    1.470   .     S
C133   C134    1.399   .     A
C133   H148    1.083   .     S
C134   C135    1.403   .     A
C134   H144    1.083   .     S
C135   C136    1.399   .     A
C136   N137    1.357   .     A
C136   H145    1.083   .     S
C138   N139    1.358   .     A
C138   C143    1.405   .     A
N139   C140    1.355   .     A
C140   C141    1.401   .     A
C140   H146    1.083   .     S
C141   C142    1.403   .     A
C141   C59     1.471   1_554 S
C142   C143    1.401   .     A
C142   H147    1.084   .     S
C143   H149    1.081   .     S
C150   N155    1.363   .     A
C150   C156    1.482   .     S
C150   C151    1.406   1_554 A
C151   C152    1.393   .     A
C151   H166    1.081   .     S
C151   C150    1.406   1_556 A
C152   H162    1.083   .     S
C152   C153    1.401   1_556 A
C153   C154    1.400   .     A
C153   C152    1.401   1_554 A
C153   C39     1.472   1_554 S
C154   N155    1.360   .     A
C154   H163    1.082   .     S
C156   N157    1.362   .     A
C156   C161    1.406   1_554 A
N157   C158    1.359   .     A
C158   C159    1.400   .     A
C158   H164    1.082   .     S
C159   C160    1.402   1_554 A
C159   C4      1.473   1_554 S
C160   C161    1.395   .     A
C160   H165    1.082   .     S
C160   C159    1.402   1_556 A
C161   H167    1.081   .     S
C161   C156    1.406   1_556 A
C168   C169    1.406   .     A
C168   N173    1.359   .     A
C168   C174    1.473   .     S
C169   C170    1.402   .     A
C169   H184    1.083   .     S
C170   C171    1.403   .     A
C170   H180    1.083   .     S
C171   C172    1.401   .     A
C171   C44     1.472   1_556 S
C172   N173    1.356   .     A
C172   H181    1.082   .     S
C174   N175    1.362   .     A
C174   C179    1.402   .     A
N175   C176    1.358   .     A
C176   C177    1.401   .     A
C176   H182    1.083   .     S
C177   C178    1.402   .     A
C178   C179    1.398   .     A
C178   H183    1.083   .     S
C179   H185    1.083   .     S
C186   C187    1.409   .     A
C186   N191    1.362   .     A
C186   C192    1.489   .     S
C187   C188    1.397   .     A
C187   H202    1.079   .     S
C188   C189    1.402   .     A
C188   H198    1.083   .     S
C189   C190    1.402   .     A
C190   N191    1.359   .     A
C190   H199    1.082   .     S
C192   N193    1.364   .     A
C192   C197    1.409   .     A
N193   C194    1.360   .     A
C194   C195    1.402   .     A
C194   H200    1.083   .     S
C195   C196    1.401   .     A
C196   C197    1.396   .     A
C196   H201    1.084   .     S
C197   H203    1.079   .     S
C204   C205    1.408   .     A
C204   C210    1.486   .     S
C204   N209    1.363   1_554 A
C205   C206    1.398   .     A
C205   H220    1.080   .     S
C206   C207    1.402   .     A
C206   H216    1.083   .     S
C207   C208    1.399   1_554 A
C208   N209    1.358   .     A
C208   H217    1.083   .     S
C208   C207    1.399   1_556 A
N209   C204    1.363   1_556 A
C210   C215    1.408   .     A
C210   N211    1.362   1_554 A
N211   C212    1.358   .     A
N211   C210    1.362   1_556 A
C212   H218    1.082   .     S
C212   C213    1.401   1_556 A
C213   C214    1.402   .     A
C213   C212    1.401   1_554 A
C214   C215    1.396   .     A
C214   H219    1.083   .     S
C215   H221    1.080   .     S
