data_kag+N106+E14
_audit_creation_date              2025-01-21
_audit_creation_method            'Materials Studio'
_symmetry_space_group_name_H-M    'P1'
_symmetry_Int_Tables_number       1
_symmetry_cell_setting            triclinic
loop_
_symmetry_equiv_pos_as_xyz
  x,y,z
_cell_length_a                    24.7637
_cell_length_b                    26.7694
_cell_length_c                    10.3187
_cell_angle_alpha                 94.0219
_cell_angle_beta                  89.5677
_cell_angle_gamma                 128.1357
loop_
_atom_site_label
_atom_site_type_symbol
_atom_site_fract_x
_atom_site_fract_y
_atom_site_fract_z
_atom_site_U_iso_or_equiv
_atom_site_adp_type
_atom_site_occupancy
Y0     Y     0.53802   0.57422  -0.01001   0.00000  Uiso   1.00
Y1     Y     0.46818   0.42766   1.01061   0.00000  Uiso   1.00
O2     O     0.62066   0.56760  -0.07848   0.00000  Uiso   1.00
O3     O     0.46231   0.48285   0.86296   0.00000  Uiso   1.00
C4     C     0.42034   0.31108   1.07241   0.00000  Uiso   1.00
O5     O     0.48894   0.42365   0.79663   0.00000  Uiso   1.00
O6     O     0.60684   0.68141   0.02669   0.00000  Uiso   1.00
O7     O     0.54275   0.63993   0.85700   0.00000  Uiso   1.00
O8     O     0.58004   0.47287   0.99307   0.00000  Uiso   1.00
O9     O     0.54375   0.51899   0.13780   0.00000  Uiso   1.00
O10    O     0.51705   0.57812   0.20393   0.00000  Uiso   1.00
O11    O     0.42625   0.52914   0.00715   0.00000  Uiso   1.00
C12    C     0.62710   0.52486   0.94360   0.00000  Uiso   1.00
O13    O     0.38563   0.43456   1.07936   0.00000  Uiso   1.00
C14    C     0.48376   0.46305   0.76303   0.00000  Uiso   1.00
O15    O     0.39900   0.32053   0.97358   0.00000  Uiso   1.00
O16    O     0.46300   0.36157   0.14323   0.00000  Uiso   1.00
C17    C     0.58534   0.69058  -0.07232   0.00000  Uiso   1.00
C18    C     0.37926   0.47735   0.05726   0.00000  Uiso   1.00
C19    C     0.52222   0.53875   0.23762   0.00000  Uiso   1.00
Y20    Y     0.95545   0.52122  -0.01542   0.00000  Uiso   1.00
Y21    Y     0.05050   0.48031   1.01878   0.00000  Uiso   1.00
O22    O     0.06043   0.60900  -0.06593   0.00000  Uiso   1.00
O23    O     0.97703   0.46262   0.85981   0.00000  Uiso   1.00
C24    C     0.13617   0.45568   1.08477   0.00000  Uiso   1.00
O25    O     0.08028   0.50520   0.81139   0.00000  Uiso   1.00
O26    O     0.90952   0.57187   0.02030   0.00000  Uiso   1.00
O27    O     0.87919   0.51234   0.84745   0.00000  Uiso   1.00
O28    O     0.12614   0.58689   1.02001   0.00000  Uiso   1.00
O29    O     0.02879   0.53875   0.14370   0.00000  Uiso   1.00
O30    O     0.92561   0.49647   0.19211   0.00000  Uiso   1.00
O31    O     0.87984   0.41462  -0.01743   0.00000  Uiso   1.00
C32    C     0.11930   0.62516   0.96933   0.00000  Uiso   1.00
O33    O     0.94539   0.39238   1.06871   0.00000  Uiso   1.00
C34    C     0.02631   0.48984   0.76838   0.00000  Uiso   1.00
O35    O     0.09632   0.42947   0.98463   0.00000  Uiso   1.00
O36    O     0.12712   0.48988   0.15607   0.00000  Uiso   1.00
C37    C     0.87004   0.54630  -0.08039   0.00000  Uiso   1.00
C38    C     0.88657   0.37626   0.03317   0.00000  Uiso   1.00
C39    C    -0.02051   0.51155   0.23509   0.00000  Uiso   1.00
Y40    Y     0.46450   0.03082   1.02154   0.00000  Uiso   1.00
Y41    Y     0.54128   0.97063  -0.02472   0.00000  Uiso   1.00
O42    O     0.37574   0.92640   1.02643   0.00000  Uiso   1.00
O43    O     0.47512  -0.03303   0.13223   0.00000  Uiso   1.00
C44    C     0.58622   0.90213  -0.08359   0.00000  Uiso   1.00
O45    O     0.57548   0.99931   0.18773   0.00000  Uiso   1.00
O46    O     0.40920   0.06934   0.97177   0.00000  Uiso   1.00
O47    O     0.45044   0.09115   0.16239   0.00000  Uiso   1.00
O48    O     0.42756   0.88924  -0.07102   0.00000  Uiso   1.00
O49    O     0.53064   1.03445   0.86463   0.00000  Uiso   1.00
O50    O     0.43022   0.00196   0.80918   0.00000  Uiso   1.00
O51    O     0.57816   0.11209   1.06826   0.00000  Uiso   1.00
C52    C     0.37328   0.88088  -0.03136   0.00000  Uiso   1.00
O53    O     0.63006   0.07507  -0.02950   0.00000  Uiso   1.00
C54    C     0.52501  -0.00885   0.22853   0.00000  Uiso   1.00
O55    O     0.59752   0.93292   0.02404   0.00000  Uiso   1.00
O56    O     0.55460   0.90966   0.83449   0.00000  Uiso   1.00
C57    C     0.41978   0.09948   1.07985   0.00000  Uiso   1.00
C58    C     0.63246   0.12049   1.02867   0.00000  Uiso   1.00
C59    C     0.48073   1.01018   0.76833   0.00000  Uiso   1.00
C60    C     0.48955   0.54206   0.46675   0.00000  Uiso   1.00
C61    C     0.51186   0.51901   0.37170   0.00000  Uiso   1.00
C62    C     0.52504   0.47759   0.40641   0.00000  Uiso   1.00
C63    C     0.51623   0.45962   0.53383   0.00000  Uiso   1.00
C64    C     0.49398   0.48272   0.62891   0.00000  Uiso   1.00
C65    C     0.48066   0.52403   0.59418   0.00000  Uiso   1.00
H66    H     0.47866   0.57386   0.44251   0.00000  Uiso   1.00
H67    H     0.54296   0.45966   0.33548   0.00000  Uiso   1.00
H68    H     0.52705   0.42777   0.55796   0.00000  Uiso   1.00
H69    H     0.46250   0.54183   0.66502   0.00000  Uiso   1.00
C70    C     0.06741   0.52064   0.54418   0.00000  Uiso   1.00
C71    C     0.01450   0.49595   0.63240   0.00000  Uiso   1.00
C72    C     0.94992   0.47597   0.58875   0.00000  Uiso   1.00
C73    C     0.93842   0.48093   0.45950   0.00000  Uiso   1.00
C74    C    -0.00869   0.50553   0.37119   0.00000  Uiso   1.00
C75    C     0.05591   0.52543   0.41475   0.00000  Uiso   1.00
H76    H     0.11760   0.53597   0.57520   0.00000  Uiso   1.00
H77    H     0.90831   0.45633   0.65452   0.00000  Uiso   1.00
H78    H     0.88819   0.46558   0.42849   0.00000  Uiso   1.00
H79    H     0.09752   0.54478   0.34875   0.00000  Uiso   1.00
C80    C     0.55902   0.00336   0.46153   0.00000  Uiso   1.00
C81    C     0.51505  -0.00200   0.36643   0.00000  Uiso   1.00
C82    C     0.45888   0.99537   0.40383   0.00000  Uiso   1.00
C83    C     0.44681   0.99805   0.53535   0.00000  Uiso   1.00
C84    C     0.49071   0.00334   0.63045   0.00000  Uiso   1.00
C85    C     0.54687   0.00600   0.59301   0.00000  Uiso   1.00
H86    H     0.60204   0.00429   0.43444   0.00000  Uiso   1.00
H87    H     0.42449   0.99130   0.33158   0.00000  Uiso   1.00
H88    H     0.40392   0.99719   0.56251   0.00000  Uiso   1.00
H89    H     0.58113   0.00992   0.66522   0.00000  Uiso   1.00
C90    C     0.25107   0.40828   1.05162   0.00000  Uiso   1.00
C91    C     0.31512   0.46712   1.08724   0.00000  Uiso   1.00
C92    C     0.31785   0.51866   0.13924   0.00000  Uiso   1.00
C93    C     0.25760   0.51195   0.15067   0.00000  Uiso   1.00
C94    C     0.19422   0.45488   0.10505   0.00000  Uiso   1.00
C95    C     0.19098   0.40261   1.05782   0.00000  Uiso   1.00
H96    H     0.24805   0.36816   1.01088   0.00000  Uiso   1.00
H97    H     0.36662   0.56503   0.16645   0.00000  Uiso   1.00
H98    H     0.26131   0.55320   0.18529   0.00000  Uiso   1.00
H99    H     0.14246   0.35835   1.02140   0.00000  Uiso   1.00
C100   C     0.82373   0.25852   0.03738   0.00000  Uiso   1.00
C101   C     0.82333   0.31086   0.04672   0.00000  Uiso   1.00
C102   C     0.76048   0.30013   1.05946   0.00000  Uiso   1.00
C103   C     0.69901   0.23833   1.05876   0.00000  Uiso   1.00
C104   C     0.69872   0.18565   0.04297   0.00000  Uiso   1.00
C105   C     0.76175   0.19628   0.03403   0.00000  Uiso   1.00
H106   H     0.87153   0.26558   0.02728   0.00000  Uiso   1.00
H107   H     0.75877   0.33970   1.06782   0.00000  Uiso   1.00
H108   H     0.65140   0.23183   1.06570   0.00000  Uiso   1.00
H109   H     0.76303   0.15653   0.02256   0.00000  Uiso   1.00
C110   C     0.74988   0.49218   0.84617   0.00000  Uiso   1.00
C111   C     0.81254   0.54789   0.89886   0.00000  Uiso   1.00
C112   C     0.81519   0.59912  -0.04817   0.00000  Uiso   1.00
C113   C     0.75515   0.59353  -0.04297   0.00000  Uiso   1.00
C114   C     0.69157   0.53563  -0.08540   0.00000  Uiso   1.00
C115   C     0.68952   0.48538   0.85684   0.00000  Uiso   1.00
H116   H     0.74655   0.45172   0.80686   0.00000  Uiso   1.00
H117   H     0.86311   0.64242  -0.00632   0.00000  Uiso   1.00
H118   H     0.75779   0.63289   0.00208   0.00000  Uiso   1.00
H119   H     0.64102   0.43979   0.82481   0.00000  Uiso   1.00
C120   C     0.24402   0.80509   0.96562   0.00000  Uiso   1.00
C121   C     0.30699   0.81568   0.95530   0.00000  Uiso   1.00
C122   C     0.30665   0.76293   0.93949   0.00000  Uiso   1.00
C123   C     0.24522   0.70113   0.94049   0.00000  Uiso   1.00
C124   C     0.18247   0.69047   0.95473   0.00000  Uiso   1.00
C125   C     0.18209   0.74286   0.96396   0.00000  Uiso   1.00
H126   H     0.24278   0.84489   0.97724   0.00000  Uiso   1.00
H127   H     0.35423   0.76941   0.93147   0.00000  Uiso   1.00
H128   H     0.24694   0.66154  -0.06774   0.00000  Uiso   1.00
H129   H     0.13436   0.73585   0.97534   0.00000  Uiso   1.00
C130   C     0.57210   0.81000  -0.20700   0.00000  Uiso   1.00
C131   C     0.60242   0.85749  -0.10296   0.00000  Uiso   1.00
C132   C     0.63891   0.85532  -0.00298   0.00000  Uiso   1.00
C133   C     0.63854   0.80314   0.00098   0.00000  Uiso   1.00
C134   C     0.60184   0.75227  -0.09532   0.00000  Uiso   1.00
C135   C     0.57177   0.75747  -0.20318   0.00000  Uiso   1.00
H136   H     0.54388   0.81072  -0.28544   0.00000  Uiso   1.00
H137   H     0.66323   0.89152   0.07825   0.00000  Uiso   1.00
H138   H     0.66220   0.80026   0.08495   0.00000  Uiso   1.00
H139   H     0.54346   0.71835  -0.27848   0.00000  Uiso   1.00
C140   C     0.36755   0.19881   0.99724   0.00000  Uiso   1.00
C141   C     0.40392   0.24928   1.09440   0.00000  Uiso   1.00
C142   C     0.43405   0.24374   1.20154   0.00000  Uiso   1.00
C143   C     0.43397   0.19133   1.20400   0.00000  Uiso   1.00
C144   C     0.40362   0.14409   1.09955   0.00000  Uiso   1.00
C145   C     0.36753   0.14679   0.99981   0.00000  Uiso   1.00
H146   H     0.34392   0.20193   0.91371   0.00000  Uiso   1.00
H147   H     0.46229   0.28255   1.27747   0.00000  Uiso   1.00
H148   H     0.46266   0.19066   1.28153   0.00000  Uiso   1.00
H149   H     0.34328   0.11085   0.91821   0.00000  Uiso   1.00
loop_
_geom_bond_atom_site_label_1
_geom_bond_atom_site_label_2
_geom_bond_distance
_geom_bond_site_symmetry_2
_ccdc_geom_bond_type
Y0     O2      2.264   .     S
Y0     O6      2.258   .     S
Y0     O9      2.261   .     S
Y0     O10     2.274   .     S
Y0     O11     2.246   .     S
Y0     O3      2.267   1_554 S
Y0     O7      2.252   1_554 S
Y1     O3      2.260   .     S
Y1     O5      2.273   .     S
Y1     O8      2.248   .     S
Y1     O13     2.268   .     S
Y1     O15     2.257   .     S
Y1     O9      2.267   1_556 S
Y1     O16     2.253   1_556 S
O2     C12     1.284   1_554 A
O3     C14     1.374   .     S
O3     Y0      2.267   1_556 S
C4     O15     1.262   .     A
C4     C141    1.474   .     S
C4     O16     1.260   1_556 A
O5     C14     1.212   .     D
O6     C17     1.262   .     A
O7     Y0      2.252   1_556 S
O7     C17     1.261   1_556 A
O8     C12     1.282   .     A
O9     C19     1.374   .     S
O9     Y1      2.267   1_554 S
O10    C19     1.211   .     D
O11    C18     1.282   .     A
C12    O2      1.284   1_556 A
C12    C114    1.469   1_556 S
O13    C18     1.284   1_556 A
C14    C64     1.479   .     S
O16    Y1      2.253   1_554 S
O16    C4      1.260   1_554 A
C17    C134    1.473   .     S
C17    O7      1.261   1_554 A
C18    O13     1.284   1_554 A
C18    C91     1.470   1_554 S
C19    C61     1.480   .     S
Y20    O26     2.257   .     S
Y20    O30     2.267   .     S
Y20    O31     2.246   .     S
Y20    O22     2.271   1_655 S
Y20    O23     2.268   1_554 S
Y20    O27     2.250   1_554 S
Y20    O29     2.258   1_655 S
Y21    O25     2.266   .     S
Y21    O28     2.246   .     S
Y21    O35     2.258   .     S
Y21    O23     2.258   1_455 S
Y21    O29     2.268   1_556 S
Y21    O33     2.272   1_455 S
Y21    O36     2.250   1_556 S
O22    Y20     2.271   1_455 S
O22    C32     1.285   1_554 A
O23    Y20     2.268   1_556 S
O23    Y21     2.258   1_655 S
O23    C34     1.375   1_655 S
C24    O35     1.262   .     A
C24    O36     1.259   1_556 A
C24    C94     1.468   1_556 S
O25    C34     1.207   .     D
O26    C37     1.262   .     A
O27    Y20     2.250   1_556 S
O27    C37     1.261   1_556 A
O28    C32     1.282   .     A
O29    C39     1.375   .     S
O29    Y20     2.258   1_455 S
O29    Y21     2.268   1_554 S
O30    C39     1.208   1_655 D
O31    C38     1.282   .     A
C32    C124    1.477   .     S
C32    O22     1.285   1_556 A
O33    Y21     2.272   1_655 S
O33    C38     1.285   1_556 A
C34    C71     1.476   .     S
C34    O23     1.375   1_455 S
O36    Y21     2.250   1_554 S
O36    C24     1.259   1_554 A
C37    O27     1.261   1_554 A
C37    C111    1.468   1_554 S
C38    C101    1.477   .     S
C38    O33     1.285   1_554 A
C39    C74     1.476   .     S
C39    O30     1.208   1_455 D
Y40    O46     2.243   .     S
Y40    O50     2.258   .     S
Y40    O51     2.280   .     S
Y40    O42     2.253   1_545 S
Y40    O43     2.265   1_556 S
Y40    O47     2.280   1_556 S
Y40    O49     2.258   1_545 S
Y41    O45     2.259   .     S
Y41    O48     2.281   .     S
Y41    O55     2.243   .     S
Y41    O43     2.258   1_565 S
Y41    O49     2.264   1_554 S
Y41    O53     2.254   1_565 S
Y41    O56     2.282   1_554 S
O42    Y40     2.253   1_565 S
O42    C52     1.285   1_556 A
O43    C54     1.369   .     S
O43    Y40     2.265   1_554 S
O43    Y41     2.258   1_545 S
C44    O55     1.258   .     A
C44    C131    1.478   .     S
C44    O56     1.264   1_554 A
O45    C54     1.206   1_565 D
O46    C57     1.257   .     A
O47    Y40     2.280   1_554 S
O47    C57     1.264   1_554 A
O48    C52     1.287   .     A
O49    C59     1.369   .     S
O49    Y40     2.258   1_565 S
O49    Y41     2.264   1_556 S
O50    C59     1.206   1_545 D
O51    C58     1.287   .     A
C52    O42     1.285   1_554 A
C52    C121    1.480   1_554 S
O53    Y41     2.254   1_545 S
O53    C58     1.285   1_554 A
C54    C81     1.461   .     S
C54    O45     1.206   1_545 D
O56    Y41     2.282   1_556 S
O56    C44     1.264   1_556 A
C57    C144    1.477   .     S
C57    O47     1.264   1_556 A
C58    O53     1.285   1_556 A
C58    C104    1.480   1_556 S
C59    O50     1.206   1_565 D
C59    C84     1.460   1_565 S
C60    C61     1.406   .     A
C60    C65     1.401   .     A
C60    H66     1.084   .     S
C61    C62     1.403   .     A
C62    C63     1.401   .     A
C62    H67     1.083   .     S
C63    C64     1.406   .     A
C63    H68     1.084   .     S
C64    C65     1.403   .     A
C65    H69     1.084   .     S
C70    C71     1.407   .     A
C70    C75     1.399   .     A
C70    H76     1.083   .     S
C71    C72     1.403   1_455 A
C72    C73     1.398   .     A
C72    H77     1.081   .     S
C72    C71     1.403   1_655 A
C73    H78     1.084   .     S
C73    C74     1.407   1_655 A
C74    C75     1.404   .     A
C74    C73     1.407   1_455 A
C75    H79     1.083   .     S
C80    C81     1.405   .     A
C80    C85     1.394   .     A
C80    H86     1.085   .     S
C81    C82     1.401   1_545 A
C82    C83     1.394   .     A
C82    H87     1.085   .     S
C82    C81     1.401   1_565 A
C83    H88     1.083   .     S
C83    C84     1.404   1_565 A
C84    C85     1.401   .     A
C84    C83     1.404   1_545 A
C84    C59     1.460   1_545 S
C85    H89     1.084   .     S
C90    C91     1.405   .     A
C90    C95     1.401   .     A
C90    H96     1.083   .     S
C91    C92     1.406   1_556 A
C91    C18     1.470   1_556 S
C92    C93     1.393   .     A
C92    H97     1.088   .     S
C92    C91     1.406   1_554 A
C93    C94     1.403   .     A
C93    H98     1.084   .     S
C94    C95     1.403   1_554 A
C94    C24     1.468   1_554 S
C95    H99     1.084   .     S
C95    C94     1.403   1_556 A
C100   C101    1.404   .     A
C100   C105    1.403   .     A
C100   H106    1.083   .     S
C101   C102    1.404   1_554 A
C102   C103    1.394   .     A
C102   H107    1.083   .     S
C102   C101    1.404   1_556 A
C103   H108    1.083   .     S
C103   C104    1.404   1_556 A
C104   C105    1.407   .     A
C104   C103    1.404   1_554 A
C104   C58     1.480   1_554 S
C105   H109    1.082   .     S
C110   C111    1.403   .     A
C110   C115    1.394   .     A
C110   H116    1.083   .     S
C111   C112    1.403   1_556 A
C111   C37     1.468   1_556 S
C112   C113    1.400   .     A
C112   H117    1.085   .     S
C112   C111    1.403   1_554 A
C113   C114    1.405   .     A
C113   H118    1.085   .     S
C114   C115    1.404   1_554 A
C114   C12     1.469   1_554 S
C115   H119    1.086   .     S
C115   C114    1.404   1_556 A
C120   C121    1.407   .     A
C120   C125    1.403   .     A
C120   H126    1.083   .     S
C121   C122    1.405   .     A
C121   C52     1.480   1_556 S
C122   C123    1.395   .     A
C122   H127    1.083   .     S
C123   C124    1.405   .     A
C123   H128    1.084   1_556 S
C124   C125    1.405   .     A
C125   H129    1.083   .     S
H128   C123    1.084   1_554 S
C130   C131    1.405   .     A
C130   C135    1.404   .     A
C130   H136    1.082   .     S
C131   C132    1.404   .     A
C132   C133    1.395   .     A
C132   H137    1.085   .     S
C133   C134    1.401   .     A
C133   H138    1.083   .     S
C134   C135    1.405   .     A
C135   H139    1.086   .     S
C140   C141    1.401   .     A
C140   C145    1.395   .     A
C140   H146    1.082   .     S
C141   C142    1.405   .     A
C142   C143    1.404   .     A
C142   H147    1.086   .     S
C143   C144    1.404   .     A
C143   H148    1.082   .     S
C144   C145    1.402   .     A
C145   H149    1.084   .     S
