data_kag+N205+E191
_audit_creation_date              2025-01-21
_audit_creation_method            'Materials Studio'
_symmetry_space_group_name_H-M    'P1'
_symmetry_Int_Tables_number       1
_symmetry_cell_setting            triclinic
loop_
_symmetry_equiv_pos_as_xyz
  x,y,z
_cell_length_a                    39.7760
_cell_length_b                    39.4636
_cell_length_c                    16.7773
_cell_angle_alpha                 91.7438
_cell_angle_beta                  96.2834
_cell_angle_gamma                 119.8408
loop_
_atom_site_label
_atom_site_type_symbol
_atom_site_fract_x
_atom_site_fract_y
_atom_site_fract_z
_atom_site_U_iso_or_equiv
_atom_site_adp_type
_atom_site_occupancy
Y0     Y     0.54959   0.49846   0.00250   0.00000  Uiso   1.00
Y1     Y     0.45378   0.50721   0.99678   0.00000  Uiso   1.00
C2     C     0.49571   0.58668   0.01972   0.00000  Uiso   1.00
C3     C     0.50498   0.50146   0.13798   0.00000  Uiso   1.00
C4     C     0.62725   0.52431   1.01529   0.00000  Uiso   1.00
C5     C     0.50764   0.41902   0.97833   0.00000  Uiso   1.00
C6     C     0.49842   0.50424   0.86159   0.00000  Uiso   1.00
C7     C     0.37612   0.48122  -0.01471   0.00000  Uiso   1.00
O8     O     0.48593   0.56723   0.95206   0.00000  Uiso   1.00
O9     O     0.48516   0.56497   0.07610   0.00000  Uiso   1.00
O10    O     0.53688   0.52252   0.11055   0.00000  Uiso   1.00
O11    O     0.47386   0.47914   0.08980   0.00000  Uiso   1.00
O12    O     0.60646   0.52189   0.95073   0.00000  Uiso   1.00
O13    O     0.60817   0.51494   0.07385   0.00000  Uiso   1.00
O14    O     0.51661   0.43826   0.04599   0.00000  Uiso   1.00
O15    O     0.51899   0.44094   0.92246   0.00000  Uiso   1.00
O16    O     0.46659   0.48298   0.88913   0.00000  Uiso   1.00
O17    O     0.52952   0.52662   0.90972   0.00000  Uiso   1.00
O18    O     0.39730   0.48432   0.04978   0.00000  Uiso   1.00
O19    O     0.39484   0.49005   0.92615   0.00000  Uiso   1.00
Y20    Y     0.05475   0.55182   0.00013   0.00000  Uiso   1.00
Y21    Y     0.94952   0.45456   1.00204   0.00000  Uiso   1.00
C22    C     0.91124   0.49502   1.01047   0.00000  Uiso   1.00
C23    C     0.01182   0.50864   0.14005   0.00000  Uiso   1.00
C24    C     0.10592   0.62923   0.99655   0.00000  Uiso   1.00
C25    C     0.09270   0.51106  -0.00833   0.00000  Uiso   1.00
C26    C    -0.00759   0.49788   0.86200   0.00000  Uiso   1.00
C27    C     0.89856   0.37707   0.00535   0.00000  Uiso   1.00
O28    O     0.91647   0.48279   0.94547   0.00000  Uiso   1.00
O29    O     0.92748   0.48798   0.07116   0.00000  Uiso   1.00
O30    O     0.02387   0.54098   0.10898   0.00000  Uiso   1.00
O31    O     1.00259   0.47767   0.09590   0.00000  Uiso   1.00
O32    O     0.08568   0.60614   0.93473   0.00000  Uiso   1.00
O33    O     0.09818   0.61266   0.06038   0.00000  Uiso   1.00
O34    O     0.08777   0.52357   0.05668   0.00000  Uiso   1.00
O35    O     0.07634   0.51797   0.93101   0.00000  Uiso   1.00
O36    O     0.98036   0.46555   0.89309   0.00000  Uiso   1.00
O37    O     0.00175   0.52890   0.90615   0.00000  Uiso   1.00
O38    O     0.91864   0.40018   0.06726   0.00000  Uiso   1.00
O39    O     0.90639   0.39367   0.94157   0.00000  Uiso   1.00
Y40    Y     0.50360   0.05400  -0.00912   0.00000  Uiso   1.00
Y41    Y     0.50064   0.95233   1.00957   0.00000  Uiso   1.00
C42    C     0.42152   0.91153   0.99771   0.00000  Uiso   1.00
C43    C     0.50617   0.01082   0.13903   0.00000  Uiso   1.00
C44    C     0.47486   0.10309   0.97096   0.00000  Uiso   1.00
C45    C     0.58276   0.09504   0.00353   0.00000  Uiso   1.00
C46    C     0.49828  -0.00441   0.86157   0.00000  Uiso   1.00
C47    C     0.52914   0.90300   0.02842   0.00000  Uiso   1.00
O48    O     0.43984   0.91713   0.93838   0.00000  Uiso   1.00
O49    O     0.44409   0.92845   0.06260   0.00000  Uiso   1.00
O50    O     0.48359   0.01967   0.09694   0.00000  Uiso   1.00
O51    O     0.52899   1.00308   0.10533   0.00000  Uiso   1.00
O52    O     0.48135   0.08683   0.91361   0.00000  Uiso   1.00
O53    O     0.48145   0.09240   0.03792   0.00000  Uiso   1.00
O54    O     0.56427   0.08943   0.06256   0.00000  Uiso   1.00
O55    O     0.56034   0.07802   0.93849   0.00000  Uiso   1.00
O56    O     0.52080   0.98668   0.90366   0.00000  Uiso   1.00
O57    O     0.47538   0.00322   0.89522   0.00000  Uiso   1.00
O58    O     0.52321   0.91955   0.08617   0.00000  Uiso   1.00
O59    O     0.52210   0.91350   0.96156   0.00000  Uiso   1.00
Ni60   Ni    0.50163   0.50299   0.49977   0.00000  Uiso   1.00
C61    C     0.50406   0.50267   0.22574   0.00000  Uiso   1.00
C62    C     0.53864   0.52538   0.27997   0.00000  Uiso   1.00
C63    C     0.53719   0.52522   0.36272   0.00000  Uiso   1.00
C64    C     0.46856   0.48136   0.33961   0.00000  Uiso   1.00
C65    C     0.46864   0.48062   0.25642   0.00000  Uiso   1.00
H66    H     0.56197   0.54319   0.78286   0.00000  Uiso   1.00
H67    H     0.43680   0.46304   0.74088   0.00000  Uiso   1.00
H68    H     0.43957   0.46350   0.59465   0.00000  Uiso   1.00
H69    H     0.56181   0.54180   0.63572   0.00000  Uiso   1.00
N70    N     0.50074   0.50268   0.60894   0.00000  Uiso   1.00
N71    N     0.50254   0.50331   0.39059   0.00000  Uiso   1.00
H72    H     0.56653   0.54279   0.25875   0.00000  Uiso   1.00
H73    H     0.56372   0.54237   0.40495   0.00000  Uiso   1.00
H74    H     0.44146   0.46426   0.36377   0.00000  Uiso   1.00
H75    H     0.44133   0.46282   0.21663   0.00000  Uiso   1.00
C76    C     0.49927   0.50318   0.77381   0.00000  Uiso   1.00
C77    C     0.46468   0.48048   0.71961   0.00000  Uiso   1.00
C78    C     0.46611   0.48069   0.63686   0.00000  Uiso   1.00
C79    C     0.53472   0.52466   0.65990   0.00000  Uiso   1.00
C80    C     0.53466   0.52536   0.74309   0.00000  Uiso   1.00
Ni81   Ni    0.00188   0.50318   0.50093   0.00000  Uiso   1.00
C82    C    -0.00433   0.49939   0.77476   0.00000  Uiso   1.00
C83    C     0.01005   0.53511   0.73997   0.00000  Uiso   1.00
C84    C     0.01185   0.53562   0.65716   0.00000  Uiso   1.00
C85    C     0.98608   0.46684   0.64232   0.00000  Uiso   1.00
C86    C     0.98379   0.46497   0.72481   0.00000  Uiso   1.00
H87    H     0.03149   0.56966   0.25297   0.00000  Uiso   1.00
H88    H     0.98456   0.44414   0.22566   0.00000  Uiso   1.00
H89    H     0.98121   0.44335   0.37177   0.00000  Uiso   1.00
H90    H     0.02706   0.56601   0.39837   0.00000  Uiso   1.00
N91    N     1.00400   0.50460   0.39163   0.00000  Uiso   1.00
N92    N    -0.00020   0.50177   0.61025   0.00000  Uiso   1.00
H93    H     0.01963   0.56235   0.77626   0.00000  Uiso   1.00
H94    H     0.02270   0.56302   0.63006   0.00000  Uiso   1.00
H95    H     0.97670   0.44036   0.60358   0.00000  Uiso   1.00
H96    H     0.97256   0.43682   0.74909   0.00000  Uiso   1.00
C97    C     1.00845   0.50709   0.22724   0.00000  Uiso   1.00
C98    C     0.99405   0.47135   0.26197   0.00000  Uiso   1.00
C99    C     0.99208   0.47078   0.34472   0.00000  Uiso   1.00
C100   C     0.01777   0.53956   0.35962   0.00000  Uiso   1.00
C101   C     0.02022   0.54149   0.27719   0.00000  Uiso   1.00
Ni102  Ni    0.50241   0.00344   0.50040   0.00000  Uiso   1.00
C103   C     0.50521   1.00875   0.22668   0.00000  Uiso   1.00
C104   C     0.47940   1.01643   0.26388   0.00000  Uiso   1.00
C105   C     0.47906   1.01462   0.34677   0.00000  Uiso   1.00
C106   C     0.52879  -0.00220   0.35708   0.00000  Uiso   1.00
C107   C     0.53009  -0.00076   0.27430   0.00000  Uiso   1.00
H108   H     0.45412   1.01338   0.75269   0.00000  Uiso   1.00
H109   H     0.54492  -0.01717   0.77142   0.00000  Uiso   1.00
H110   H     0.54554  -0.01365   0.62498   0.00000  Uiso   1.00
H111   H     0.45681   1.01613   0.60647   0.00000  Uiso   1.00
N112   N     0.50126   0.00140   0.60946   0.00000  Uiso   1.00
N113   N     0.50355   0.00547   0.39133   0.00000  Uiso   1.00
H114   H     0.45973   1.02382   0.22933   0.00000  Uiso   1.00
H115   H     0.45931   1.02057   0.37585   0.00000  Uiso   1.00
H116   H     0.54792  -0.00938   0.39427   0.00000  Uiso   1.00
H117   H     0.55041  -0.00690   0.24796   0.00000  Uiso   1.00
C118   C     0.49937  -0.00219   0.77400   0.00000  Uiso   1.00
C119   C     0.52527  -0.00974   0.73686   0.00000  Uiso   1.00
C120   C     0.52574  -0.00777   0.65403   0.00000  Uiso   1.00
C121   C     0.47595   1.00896   0.64366   0.00000  Uiso   1.00
C122   C     0.47451   1.00736   0.72638   0.00000  Uiso   1.00
Ni123  Ni    0.21677   0.46605  -0.02222   0.00000  Uiso   1.00
C124   C     0.33471   0.47068  -0.01956   0.00000  Uiso   1.00
C125   C     0.31658   0.46356   0.05013   0.00000  Uiso   1.00
C126   C     0.27951   0.45958   0.04666   0.00000  Uiso   1.00
C127   C     0.27710   0.46732   0.90695   0.00000  Uiso   1.00
C128   C     0.31412   0.47142   0.90766   0.00000  Uiso   1.00
H129   H     0.13014   0.49428   0.11665   0.00000  Uiso   1.00
H130   H     0.11203   0.48826   0.85677   0.00000  Uiso   1.00
H131   H     0.16269   0.46960   0.85358   0.00000  Uiso   1.00
H132   H     0.18026   0.47543   0.10775   0.00000  Uiso   1.00
N133   N     0.17344   0.47131  -0.01959   0.00000  Uiso   1.00
N134   N     0.26104   0.46237  -0.02380   0.00000  Uiso   1.00
H135   H     0.33159   0.46287   0.10740   0.00000  Uiso   1.00
H136   H     0.26621   0.45612   0.10097   0.00000  Uiso   1.00
H137   H     0.26194   0.46992   0.85196   0.00000  Uiso   1.00
H138   H     0.32722   0.47695   0.85275   0.00000  Uiso   1.00
C139   C     0.11722   0.49294  -0.01278   0.00000  Uiso   1.00
C140   C     0.12579   0.48461   0.91263   0.00000  Uiso   1.00
C141   C     0.15437   0.47394   0.91060   0.00000  Uiso   1.00
C142   C     0.16422   0.47722   0.05322   0.00000  Uiso   1.00
C143   C     0.13593   0.48802   0.05804   0.00000  Uiso   1.00
Ni144  Ni    0.75282   0.21970   0.01266   0.00000  Uiso   1.00
C145   C     0.86746   0.33598   0.00740   0.00000  Uiso   1.00
C146   C     0.85665   0.32114   0.08116   0.00000  Uiso   1.00
C147   C     0.82304   0.28454   0.08155   0.00000  Uiso   1.00
C148   C     0.81209   0.27618   0.93874   0.00000  Uiso   1.00
C149   C     0.84540   0.31262   0.93554   0.00000  Uiso   1.00
H150   H     0.63501   0.13899   0.13642   0.00000  Uiso   1.00
H151   H     0.62722   0.10977   0.88219   0.00000  Uiso   1.00
H152   H     0.69686   0.16056   0.88907   0.00000  Uiso   1.00
H153   H     0.70447   0.18923   0.13760   0.00000  Uiso   1.00
N154   N     0.70382   0.17690   0.01367   0.00000  Uiso   1.00
N155   N     0.80118   0.26337   0.01100   0.00000  Uiso   1.00
H156   H     0.87283   0.33842   0.13781   0.00000  Uiso   1.00
H157   H     0.81337   0.27380   0.13810   0.00000  Uiso   1.00
H158   H     0.79386   0.25886   0.88361   0.00000  Uiso   1.00
H159   H     0.85278   0.32315   0.87749   0.00000  Uiso   1.00
C160   C     0.62555   0.12051   0.00886   0.00000  Uiso   1.00
C161   C     0.64372   0.12613   0.93946   0.00000  Uiso   1.00
C162   C     0.68313   0.15474   0.94313   0.00000  Uiso   1.00
C163   C     0.68742   0.17081   0.08261   0.00000  Uiso   1.00
C164   C     0.64809   0.14244   0.08172   0.00000  Uiso   1.00
Ni165  Ni    0.78661   0.53926   1.02393   0.00000  Uiso   1.00
C166   C     0.88655   0.51294   1.01487   0.00000  Uiso   1.00
C167   C     0.86804   0.51810   0.94402   0.00000  Uiso   1.00
C168   C     0.83962   0.52873   0.94877   0.00000  Uiso   1.00
C169   C     0.84893   0.53134   0.09133   0.00000  Uiso   1.00
C170   C     0.87762   0.52082   0.08940   0.00000  Uiso   1.00
H171   H     0.67267   0.54424   0.89467   0.00000  Uiso   1.00
H172   H     0.67508   0.52636   0.14758   0.00000  Uiso   1.00
H173   H     0.74039   0.53340   0.14876   0.00000  Uiso   1.00
H174   H     0.73807   0.55098   0.90154   0.00000  Uiso   1.00
N175   N     0.74223   0.54276   1.02543   0.00000  Uiso   1.00
N176   N     0.83007   0.53422   1.02150   0.00000  Uiso   1.00
H177   H     0.87407   0.51213   0.88542   0.00000  Uiso   1.00
H178   H     0.82374   0.53074   0.89423   0.00000  Uiso   1.00
H179   H     0.84036   0.53536   0.14830   0.00000  Uiso   1.00
H180   H     0.89116   0.51692   0.14524   0.00000  Uiso   1.00
C181   C     0.66861   0.53464   1.02073   0.00000  Uiso   1.00
C182   C     0.68862   0.53273   0.09319   0.00000  Uiso   1.00
C183   C     0.72563   0.53679   0.09413   0.00000  Uiso   1.00
C184   C     0.72431   0.54663   0.95540   0.00000  Uiso   1.00
C185   C     0.68726   0.54271   0.95170   0.00000  Uiso   1.00
Ni186  Ni    0.25162   0.78665   0.98946   0.00000  Uiso   1.00
C187   C     0.37875   0.88608   0.99278   0.00000  Uiso   1.00
C188   C     0.36085   0.88010   0.06263   0.00000  Uiso   1.00
C189   C     0.32148   0.85138   0.05923   0.00000  Uiso   1.00
C190   C     0.31672   0.83595   0.91926   0.00000  Uiso   1.00
C191   C     0.35601   0.86441   0.91988   0.00000  Uiso   1.00
H192   H     0.15147   0.68325   0.12430   0.00000  Uiso   1.00
H193   H     0.13191   0.66772   0.86396   0.00000  Uiso   1.00
H194   H     0.19138   0.73237   0.86381   0.00000  Uiso   1.00
H195   H     0.21038   0.74756   0.11833   0.00000  Uiso   1.00
N196   N     0.20329   0.74293   0.99092   0.00000  Uiso   1.00
N197   N     0.30059   0.82952   0.98856   0.00000  Uiso   1.00
H198   H     0.37752   0.89625   0.11995   0.00000  Uiso   1.00
H199   H     0.30798   0.84527   0.11359   0.00000  Uiso   1.00
H200   H     0.29952   0.81772   0.86419   0.00000  Uiso   1.00
H201   H     0.36887   0.86814   0.86483   0.00000  Uiso   1.00
C202   C     0.13705   0.67029   0.99440   0.00000  Uiso   1.00
C203   C     0.14799   0.68506   0.92062   0.00000  Uiso   1.00
C204   C     0.18159   0.72167   0.92032   0.00000  Uiso   1.00
C205   C     0.19226   0.73017   0.06315   0.00000  Uiso   1.00
C206   C     0.15896   0.69372   0.06627   0.00000  Uiso   1.00
Ni207  Ni    0.54429   0.75838   0.04581   0.00000  Uiso   1.00
C208   C     0.54038   0.87271   0.03698   0.00000  Uiso   1.00
C209   C     0.54023   0.85671   0.11063   0.00000  Uiso   1.00
C210   C     0.54416   0.82344   0.11375   0.00000  Uiso   1.00
C211   C     0.55090   0.82324  -0.02491   0.00000  Uiso   1.00
C212   C     0.54692   0.85631  -0.03083   0.00000  Uiso   1.00
H213   H     0.51101   0.63361   0.15802   0.00000  Uiso   1.00
H214   H     0.52281   0.63742   0.90504   0.00000  Uiso   1.00
H215   H     0.54307   0.70763   0.91915   0.00000  Uiso   1.00
H216   H     0.53141   0.70404   0.16654   0.00000  Uiso   1.00
N217   N     0.53843   0.70904   0.04343   0.00000  Uiso   1.00
N218   N     0.54853   0.80703   0.04608   0.00000  Uiso   1.00
H219   H     0.53503   0.86846   0.16406   0.00000  Uiso   1.00
H220   H     0.54178   0.80957   0.16916   0.00000  Uiso   1.00
H221   H     0.55386   0.80921   0.92203   0.00000  Uiso   1.00
H222   H     0.54714   0.86781  -0.08871   0.00000  Uiso   1.00
C223   C     0.51495   0.62986   0.03045   0.00000  Uiso   1.00
C224   C     0.52545   0.65152   0.96364   0.00000  Uiso   1.00
C225   C     0.53710   0.69131   0.97147   0.00000  Uiso   1.00
C226   C     0.53057   0.68931   0.11028   0.00000  Uiso   1.00
C227   C     0.51890   0.64942   0.10521   0.00000  Uiso   1.00
Ni228  Ni    0.45936   0.24743   0.95199   0.00000  Uiso   1.00
C229   C     0.48849   0.37586   0.96715   0.00000  Uiso   1.00
C230   C     0.48575   0.35664   0.89287   0.00000  Uiso   1.00
C231   C     0.47408   0.31676   0.88768   0.00000  Uiso   1.00
C232   C     0.46530   0.31410   0.02532   0.00000  Uiso   1.00
C233   C     0.47690   0.35389   0.03327   0.00000  Uiso   1.00
H234   H     0.46925   0.13757   0.83492   0.00000  Uiso   1.00
H235   H     0.45640   0.13816   0.08732   0.00000  Uiso   1.00
H236   H     0.44954   0.19665   0.07601   0.00000  Uiso   1.00
H237   H     0.46230   0.19634   0.82927   0.00000  Uiso   1.00
N238   N     0.45521   0.19885   0.95213   0.00000  Uiso   1.00
N239   N     0.46511   0.29671   0.95397   0.00000  Uiso   1.00
H240   H     0.49458   0.37272   0.84066   0.00000  Uiso   1.00
H241   H     0.47408   0.30226   0.83190   0.00000  Uiso   1.00
H242   H     0.45839   0.29750   0.07720   0.00000  Uiso   1.00
H243   H     0.47863   0.36772   0.09151   0.00000  Uiso   1.00
C244   C     0.46353   0.13329   0.96189   0.00000  Uiso   1.00
C245   C     0.45672   0.14963   1.02940   0.00000  Uiso   1.00
C246   C     0.45267   0.18265   1.02315   0.00000  Uiso   1.00
C247   C     0.45980   0.18247   0.88469   0.00000  Uiso   1.00
C248   C     0.46383   0.14927   0.88815   0.00000  Uiso   1.00
loop_
_geom_bond_atom_site_label_1
_geom_bond_atom_site_label_2
_geom_bond_distance
_geom_bond_site_symmetry_2
_ccdc_geom_bond_type
Y0     O10     2.240   .     S
Y0     O13     2.262   .     S
Y0     O14     2.261   .     S
Y0     O12     2.264   1_554 S
Y0     O15     2.268   1_554 S
Y0     O17     2.238   1_554 S
Y1     O8      2.261   .     S
Y1     O16     2.240   .     S
Y1     O19     2.263   .     S
Y1     O9      2.268   1_556 S
Y1     O11     2.239   1_556 S
Y1     O18     2.263   1_556 S
C2     O9      1.258   .     A
C2     C223    1.475   .     S
C2     O8      1.258   1_554 A
C3     O10     1.271   .     A
C3     O11     1.270   .     A
C3     C61     1.477   .     S
C4     O12     1.259   .     A
C4     C181    1.476   .     S
C4     O13     1.259   1_556 A
C5     O15     1.258   .     A
C5     C229    1.475   .     S
C5     O14     1.258   1_556 A
C6     O16     1.271   .     A
C6     O17     1.270   .     A
C6     C76     1.477   .     S
C7     O18     1.259   .     A
C7     C124    1.476   .     S
C7     O19     1.259   1_554 A
O8     C2      1.258   1_556 A
O9     Y1      2.268   1_554 S
O11    Y1      2.239   1_554 S
O12    Y0      2.264   1_556 S
O13    C4      1.259   1_554 A
O14    C5      1.258   1_554 A
O15    Y0      2.268   1_556 S
O17    Y0      2.238   1_556 S
O18    Y1      2.263   1_554 S
O19    C7      1.259   1_556 A
Y20    O30     2.246   .     S
Y20    O33     2.261   .     S
Y20    O34     2.262   .     S
Y20    O32     2.264   1_554 S
Y20    O35     2.265   1_554 S
Y20    O37     2.244   1_554 S
Y21    O28     2.262   .     S
Y21    O36     2.246   .     S
Y21    O39     2.261   .     S
Y21    O29     2.265   1_556 S
Y21    O31     2.244   1_556 S
Y21    O38     2.264   1_556 S
C22    O28     1.258   .     A
C22    C166    1.475   .     S
C22    O29     1.258   1_556 A
C23    O30     1.271   .     A
C23    O31     1.271   1_455 A
C23    C97     1.484   1_455 S
C24    O32     1.259   .     A
C24    C202    1.475   .     S
C24    O33     1.259   1_556 A
C25    O34     1.258   .     A
C25    C139    1.475   .     S
C25    O35     1.258   1_554 A
C26    O37     1.271   .     A
C26    C82     1.484   .     S
C26    O36     1.272   1_455 A
C27    O38     1.259   .     A
C27    C145    1.476   .     S
C27    O39     1.258   1_554 A
O29    Y21     2.265   1_554 S
O29    C22     1.258   1_554 A
O31    Y21     2.244   1_554 S
O31    C23     1.271   1_655 A
O32    Y20     2.264   1_556 S
O33    C24     1.259   1_554 A
O35    Y20     2.265   1_556 S
O35    C25     1.258   1_556 A
O36    C26     1.272   1_655 A
O37    Y20     2.244   1_556 S
O38    Y21     2.264   1_554 S
O39    C27     1.258   1_556 A
Y40    O50     2.240   .     S
Y40    O53     2.259   .     S
Y40    O54     2.265   .     S
Y40    O52     2.266   1_554 S
Y40    O55     2.263   1_554 S
Y40    O57     2.241   1_554 S
Y41    O48     2.265   .     S
Y41    O56     2.239   .     S
Y41    O59     2.259   .     S
Y41    O49     2.263   1_556 S
Y41    O51     2.242   1_556 S
Y41    O58     2.266   1_556 S
C42    O48     1.258   .     A
C42    C187    1.474   .     S
C42    O49     1.258   1_556 A
C43    O50     1.271   .     A
C43    O51     1.271   1_545 A
C43    C103    1.479   1_545 S
C44    O52     1.259   .     A
C44    C244    1.476   .     S
C44    O53     1.258   1_556 A
C45    O54     1.258   .     A
C45    C160    1.474   .     S
C45    O55     1.258   1_554 A
C46    O57     1.271   .     A
C46    C118    1.479   .     S
C46    O56     1.271   1_545 A
C47    O58     1.259   .     A
C47    C208    1.476   .     S
C47    O59     1.258   1_554 A
O49    Y41     2.263   1_554 S
O49    C42     1.258   1_554 A
O51    Y41     2.242   1_554 S
O51    C43     1.271   1_565 A
O52    Y40     2.266   1_556 S
O53    C44     1.258   1_554 A
O55    Y40     2.263   1_556 S
O55    C45     1.258   1_556 A
O56    C46     1.271   1_565 A
O57    Y40     2.241   1_556 S
O58    Y41     2.266   1_554 S
O59    C47     1.258   1_556 A
Ni60   N70     1.836   .     S
Ni60   N71     1.836   .     S
C61    C62     1.404   .     A
C61    C65     1.405   .     A
C62    C63     1.396   .     A
C62    H72     1.083   .     S
C63    N71     1.359   .     A
C63    H73     1.082   .     S
C64    C65     1.396   .     A
C64    N71     1.358   .     A
C64    H74     1.082   .     S
C65    H75     1.083   .     S
H66    C80     1.083   .     S
H67    C77     1.083   .     S
H68    C78     1.082   .     S
H69    C79     1.082   .     S
N70    C78     1.359   .     A
N70    C79     1.358   .     A
C76    C77     1.404   .     A
C76    C80     1.405   .     A
C77    C78     1.396   .     A
C79    C80     1.395   .     A
Ni81   N92     1.846   .     S
Ni81   N91     1.846   1_455 S
C82    C83     1.406   .     A
C82    C86     1.406   1_455 A
C83    C84     1.399   .     A
C83    H93     1.083   .     S
C84    N92     1.360   .     A
C84    H94     1.082   .     S
C85    C86     1.399   .     A
C85    H95     1.082   .     S
C85    N92     1.360   1_655 A
C86    H96     1.083   .     S
C86    C82     1.406   1_655 A
H87    C101    1.083   .     S
H88    C98     1.083   .     S
H89    C99     1.082   .     S
H90    C100    1.082   .     S
N91    C99     1.360   .     A
N91    Ni81    1.846   1_655 S
N91    C100    1.360   1_655 A
N92    C85     1.360   1_455 A
C97    C98     1.406   .     A
C97    C101    1.406   1_655 A
C97    C23     1.484   1_655 S
C98    C99     1.399   .     A
C100   C101    1.399   .     A
C100   N91     1.360   1_455 A
C101   C97     1.406   1_455 A
Ni102  N112    1.839   .     S
Ni102  N113    1.839   .     S
C103   C104    1.405   .     A
C103   C107    1.405   1_565 A
C103   C43     1.479   1_565 S
C104   C105    1.396   .     A
C104   H114    1.083   .     S
C105   H115    1.082   .     S
C105   N113    1.358   1_565 A
C106   C107    1.397   .     A
C106   N113    1.359   .     A
C106   H116    1.082   .     S
C107   H117    1.083   .     S
C107   C103    1.405   1_545 A
H108   C122    1.083   .     S
H109   C119    1.083   .     S
H110   C120    1.082   .     S
H111   C121    1.082   .     S
N112   C120    1.358   .     A
N112   C121    1.359   1_545 A
N113   C105    1.358   1_545 A
C118   C119    1.405   .     A
C118   C122    1.405   1_545 A
C119   C120    1.396   .     A
C121   C122    1.397   .     A
C121   N112    1.359   1_565 A
C122   C118    1.405   1_565 A
Ni123  N133    1.840   .     S
Ni123  N134    1.840   .     S
C124   C125    1.403   .     A
C124   C128    1.404   1_554 A
C125   C126    1.397   .     A
C125   H135    1.083   .     S
C126   N134    1.359   .     A
C126   H136    1.082   .     S
C127   C128    1.397   .     A
C127   H137    1.082   .     S
C127   N134    1.360   1_556 A
C128   H138    1.083   .     S
C128   C124    1.404   1_556 A
H129   C143    1.083   .     S
H130   C140    1.083   .     S
H131   C141    1.082   .     S
H132   C142    1.082   .     S
N133   C142    1.359   .     A
N133   C141    1.360   1_554 A
N134   C127    1.360   1_554 A
C139   C143    1.403   .     A
C139   C140    1.403   1_554 A
C140   C141    1.398   .     A
C140   C139    1.403   1_556 A
C141   N133    1.360   1_556 A
C142   C143    1.396   .     A
Ni144  N154    1.840   .     S
Ni144  N155    1.840   .     S
C145   C146    1.404   .     A
C145   C149    1.403   1_554 A
C146   C147    1.398   .     A
C146   H156    1.083   .     S
C147   N155    1.359   .     A
C147   H157    1.082   .     S
C148   C149    1.397   .     A
C148   H158    1.082   .     S
C148   N155    1.359   1_556 A
C149   H159    1.083   .     S
C149   C145    1.403   1_556 A
H150   C164    1.083   .     S
H151   C161    1.083   .     S
H152   C162    1.081   .     S
H153   C163    1.082   .     S
N154   C163    1.359   .     A
N154   C162    1.360   1_554 A
N155   C148    1.359   1_554 A
C160   C164    1.404   .     A
C160   C161    1.403   1_554 A
C161   C162    1.396   .     A
C161   C160    1.403   1_556 A
C162   N154    1.360   1_556 A
C163   C164    1.397   .     A
Ni165  N175    1.841   .     S
Ni165  N176    1.841   .     S
C166   C167    1.403   .     A
C166   C170    1.404   1_556 A
C167   C168    1.396   .     A
C167   H177    1.083   .     S
C168   N176    1.359   .     A
C168   H178    1.082   .     S
C169   C170    1.398   .     A
C169   H179    1.082   .     S
C169   N176    1.360   1_554 A
C170   H180    1.083   .     S
C170   C166    1.404   1_554 A
H171   C185    1.083   .     S
H172   C182    1.083   .     S
H173   C183    1.082   .     S
H174   C184    1.082   .     S
N175   C184    1.359   .     A
N175   C183    1.359   1_556 A
N176   C169    1.360   1_556 A
C181   C185    1.403   .     A
C181   C182    1.404   1_556 A
C182   C183    1.397   .     A
C182   C181    1.404   1_554 A
C183   N175    1.359   1_554 A
C184   C185    1.397   .     A
Ni186  N196    1.840   .     S
Ni186  N197    1.840   .     S
C187   C191    1.404   .     A
C187   C188    1.403   1_556 A
C188   C189    1.396   .     A
C188   H198    1.083   .     S
C188   C187    1.403   1_554 A
C189   H199    1.082   .     S
C189   N197    1.360   1_554 A
C190   C191    1.397   .     A
C190   N197    1.359   .     A
C190   H200    1.082   .     S
C191   H201    1.083   .     S
H192   C206    1.083   .     S
H193   C203    1.083   .     S
H194   C204    1.082   .     S
H195   C205    1.082   .     S
N196   C204    1.359   .     A
N196   C205    1.359   1_556 A
N197   C189    1.360   1_556 A
C202   C203    1.404   .     A
C202   C206    1.403   1_556 A
C203   C204    1.398   .     A
C205   C206    1.396   .     A
C205   N196    1.359   1_554 A
C206   C202    1.403   1_554 A
Ni207  N217    1.841   .     S
Ni207  N218    1.841   .     S
C208   C209    1.404   .     A
C208   C212    1.403   .     A
C209   C210    1.399   .     A
C209   H219    1.083   .     S
C210   N218    1.360   .     A
C210   H220    1.082   .     S
C211   C212    1.396   .     A
C211   N218    1.359   .     A
C211   H221    1.082   1_554 S
C212   H222    1.083   .     S
H213   C227    1.083   .     S
H214   C224    1.083   .     S
H215   C225    1.082   .     S
H216   C226    1.082   .     S
N217   C226    1.360   .     A
N217   C225    1.359   1_554 A
H221   C211    1.082   1_556 S
C223   C227    1.404   .     A
C223   C224    1.402   1_554 A
C224   C225    1.396   .     A
C224   C223    1.402   1_556 A
C225   N217    1.359   1_556 A
C226   C227    1.399   .     A
Ni228  N238    1.841   .     S
Ni228  N239    1.841   .     S
C229   C230    1.404   .     A
C229   C233    1.403   1_556 A
C230   C231    1.399   .     A
C230   H240    1.083   .     S
C231   N239    1.360   .     A
C231   H241    1.082   .     S
C232   C233    1.396   .     A
C232   H242    1.082   .     S
C232   N239    1.359   1_554 A
C233   H243    1.083   .     S
C233   C229    1.403   1_554 A
H234   C248    1.083   .     S
H235   C245    1.083   1_554 S
H236   C246    1.082   1_554 S
H237   C247    1.082   .     S
N238   C246    1.359   .     A
N238   C247    1.360   .     A
N239   C232    1.359   1_556 A
C244   C245    1.403   .     A
C244   C248    1.404   .     A
C245   C246    1.396   .     A
C245   H235    1.083   1_556 S
C246   H236    1.082   1_556 S
C247   C248    1.399   .     A
