data_kag+N173+E15
_audit_creation_date              2025-01-21
_audit_creation_method            'Materials Studio'
_symmetry_space_group_name_H-M    'P1'
_symmetry_Int_Tables_number       1
_symmetry_cell_setting            triclinic
loop_
_symmetry_equiv_pos_as_xyz
  x,y,z
_cell_length_a                    22.4956
_cell_length_b                    22.5523
_cell_length_c                    10.7623
_cell_angle_alpha                 93.4367
_cell_angle_beta                  94.5858
_cell_angle_gamma                 120.0698
loop_
_atom_site_label
_atom_site_type_symbol
_atom_site_fract_x
_atom_site_fract_y
_atom_site_fract_z
_atom_site_U_iso_or_equiv
_atom_site_adp_type
_atom_site_occupancy
Gd0    Gd    0.55165   0.43046   0.89636   0.00000  Uiso   1.00
Gd1    Gd    0.61063   0.54775  -0.06930   0.00000  Uiso   1.00
O2     O     0.60642   0.54866   0.13702   0.00000  Uiso   1.00
O3     O     0.57089   0.43785   0.10865   0.00000  Uiso   1.00
O4     O     0.45232   0.42768  -0.08967   0.00000  Uiso   1.00
O5     O     0.50749   0.54130   0.90605   0.00000  Uiso   1.00
O6     O     0.50897   0.31538   0.87807   0.00000  Uiso   1.00
O7     O     0.54528   0.37147   0.05914   0.00000  Uiso   1.00
O8     O     0.54203   0.43640   0.69125   0.00000  Uiso   1.00
C9     C     0.52696   0.31504   0.99265   0.00000  Uiso   1.00
O10    O     0.61652   0.54797   0.72333   0.00000  Uiso   1.00
O11    O     0.64996   0.43437   0.87989   0.00000  Uiso   1.00
C12    C     0.45133   0.48361  -0.09428   0.00000  Uiso   1.00
O13    O     0.70788   0.54270  -0.04109   0.00000  Uiso   1.00
O14    O     0.56849   0.62094  -0.07707   0.00000  Uiso   1.00
O15    O     0.67593   0.66158   0.95607   0.00000  Uiso   1.00
C16    C     0.59111   0.49287   0.18251   0.00000  Uiso   1.00
C17    C     0.62810   0.67493  -0.05720   0.00000  Uiso   1.00
C18    C     0.70655   0.48724  -0.07557   0.00000  Uiso   1.00
C19    C     0.58220   0.49251   0.64906   0.00000  Uiso   1.00
Gd20   Gd    0.07468   0.56051   1.09641   0.00000  Uiso   1.00
Gd21   Gd    0.16208   0.53411   0.10894   0.00000  Uiso   1.00
O22    O     0.15893   0.54082   0.31899   0.00000  Uiso   1.00
O23    O     0.07218   0.56047   0.29877   0.00000  Uiso   1.00
O24    O     0.15692   0.67163   0.12571   0.00000  Uiso   1.00
O25    O     0.23967   0.64647   0.12746   0.00000  Uiso   1.00
O26    O     0.96411   0.47746   1.05450   0.00000  Uiso   1.00
O27    O     0.98649   0.58105   0.07334   0.00000  Uiso   1.00
O28    O     0.07712   0.56412   0.89508   0.00000  Uiso   1.00
C29    C     0.94052   0.51803   0.04634   0.00000  Uiso   1.00
O30    O     0.15644   0.53404   0.89496   0.00000  Uiso   1.00
O31    O     1.00025   0.44460   1.06987   0.00000  Uiso   1.00
C32    C     0.22078   0.69096   0.13056   0.00000  Uiso   1.00
O33    O     0.08460   0.42144   1.09064   0.00000  Uiso   1.00
O34    O     0.24893   0.51199   0.11651   0.00000  Uiso   1.00
O35    O     0.20455   0.51613   0.93836   0.00000  Uiso   1.00
C36    C     0.11638   0.55415   0.36778   0.00000  Uiso   1.00
C37    C     0.24990   0.50716   0.99904   0.00000  Uiso   1.00
C38    C     1.02027   0.40064   1.07547   0.00000  Uiso   1.00
C39    C     0.11761   0.55285   0.83686   0.00000  Uiso   1.00
Gd40   Gd    0.55321   0.98084   0.97355   0.00000  Uiso   1.00
Gd41   Gd    0.67084   0.05454   0.00854   0.00000  Uiso   1.00
O42    O     0.67053   0.05645   0.21274   0.00000  Uiso   1.00
O43    O     0.55883   0.97859   0.18621   0.00000  Uiso   1.00
O44    O     0.54024   0.07249  -0.00572   0.00000  Uiso   1.00
O45    O     0.65359   0.14421   1.01676   0.00000  Uiso   1.00
O46    O     0.43805   0.91188   0.94484   0.00000  Uiso   1.00
O47    O     0.48945   0.93574   0.13017   0.00000  Uiso   1.00
O48    O     0.56109   0.99096   0.76718   0.00000  Uiso   1.00
C49    C     0.43202   0.90326   1.05899   0.00000  Uiso   1.00
O50    O     0.67497   0.04872   0.80448   0.00000  Uiso   1.00
O51    O     0.56775   0.88949   0.95368   0.00000  Uiso   1.00
C52    C     0.59197   0.13353   0.01313   0.00000  Uiso   1.00
O53    O     0.67960   0.96105   0.00363   0.00000  Uiso   1.00
O54    O     0.74645   0.17145   0.02639   0.00000  Uiso   1.00
O55    O     0.78666   0.10699   1.03907   0.00000  Uiso   1.00
C56    C     0.61644   0.01539   0.25804   0.00000  Uiso   1.00
C57    C     0.80078   0.16803   0.03965   0.00000  Uiso   1.00
C58    C     0.62896   0.90004   0.97458   0.00000  Uiso   1.00
C59    C     0.62012   0.01910   0.72735   0.00000  Uiso   1.00
N60    N     0.63326   0.45917   0.48585   0.00000  Uiso   1.00
N61    N     0.63631   0.45987   0.36421   0.00000  Uiso   1.00
C62    C     0.60282   0.49084   0.31763   0.00000  Uiso   1.00
C63    C     0.57772   0.51190   0.41509   0.00000  Uiso   1.00
C64    C     0.59763   0.48963   0.51995   0.00000  Uiso   1.00
H65    H     0.54641   0.53588   0.40898   0.00000  Uiso   1.00
H66    H     0.65366   0.43640   0.54391   0.00000  Uiso   1.00
H67    H     0.66032   0.43855   0.31394   0.00000  Uiso   1.00
N68    N     0.10123   0.61379   0.54741   0.00000  Uiso   1.00
N69    N     0.10185   0.61354   0.66931   0.00000  Uiso   1.00
C70    C     0.12059   0.56856   0.70653   0.00000  Uiso   1.00
C71    C     0.13409   0.53926   0.60252   0.00000  Uiso   1.00
C72    C     0.11960   0.56901   0.50305   0.00000  Uiso   1.00
H73    H     0.14761   0.49942   0.59835   0.00000  Uiso   1.00
H74    H     0.08693   0.64324   0.49500   0.00000  Uiso   1.00
H75    H     0.08779   0.64275   0.72552   0.00000  Uiso   1.00
N76    N     0.68067   0.00351   0.56137   0.00000  Uiso   1.00
N77    N     0.67883   0.00087   0.43849   0.00000  Uiso   1.00
C78    C     0.62481   0.00631   0.39060   0.00000  Uiso   1.00
C79    C     0.58925   0.01118   0.48739   0.00000  Uiso   1.00
C80    C     0.62799   0.01079   0.59480   0.00000  Uiso   1.00
H81    H     0.54564   0.01925   0.48137   0.00000  Uiso   1.00
H82    H     0.71881   0.00216   0.62135   0.00000  Uiso   1.00
H83    H     0.71576  -0.00198   0.38931   0.00000  Uiso   1.00
N84    N     0.29227   0.47714   0.81286   0.00000  Uiso   1.00
N85    N     0.34528   0.47030   0.78823   0.00000  Uiso   1.00
C86    C     0.38539   0.48181   0.89707   0.00000  Uiso   1.00
C87    C     0.35729   0.49687  -0.00475   0.00000  Uiso   1.00
C88    C     0.29812   0.49325   0.93758   0.00000  Uiso   1.00
H89    H     0.37768   0.50990   0.09378   0.00000  Uiso   1.00
H90    H     0.25323   0.47154   0.74541   0.00000  Uiso   1.00
H91    H     0.35448   0.45930   0.69858   0.00000  Uiso   1.00
N92    N     0.92761   0.21638   1.06201   0.00000  Uiso   1.00
N93    N     0.98526   0.27685   1.06963   0.00000  Uiso   1.00
C94    C     0.96869   0.32644   1.06601   0.00000  Uiso   1.00
C95    C     0.89685   0.29588   1.05537   0.00000  Uiso   1.00
C96    C     0.87285   0.22582   1.05289   0.00000  Uiso   1.00
H97    H     0.86667   0.32096   1.05075   0.00000  Uiso   1.00
H98    H     0.92619   0.16941   1.06266   0.00000  Uiso   1.00
H99    H     0.03486   0.28372   1.07824   0.00000  Uiso   1.00
N100   N     0.76548   0.42064   0.90661   0.00000  Uiso   1.00
N101   N     0.82634   0.42804   0.94255   0.00000  Uiso   1.00
C102   C     0.86827   0.49241   0.00056   0.00000  Uiso   1.00
C103   C     0.83319   0.52839   0.00025   0.00000  Uiso   1.00
C104   C     0.76788   0.48047  -0.06003   0.00000  Uiso   1.00
H105   H     0.85195   0.58094   0.03944   0.00000  Uiso   1.00
H106   H     0.72311   0.37482   0.86173   0.00000  Uiso   1.00
H107   H     0.83881   0.38975   0.92665   0.00000  Uiso   1.00
N108   N     0.25579   0.81346   0.11411   0.00000  Uiso   1.00
N109   N     0.31237   0.87041   0.09459   0.00000  Uiso   1.00
C110   C     0.36571   0.85883   0.10304   0.00000  Uiso   1.00
C111   C     0.34219   0.79164   0.12759   0.00000  Uiso   1.00
C112   C     0.27208   0.76443   0.13293   0.00000  Uiso   1.00
H113   H     0.37027   0.76423   0.12735   0.00000  Uiso   1.00
H114   H     0.20640   0.80722   1.10640   0.00000  Uiso   1.00
H115   H     0.31346   0.91481   1.06874   0.00000  Uiso   1.00
N116   N     0.71032   0.79936   0.96236   0.00000  Uiso   1.00
N117   N     0.71072   0.85798  -0.02853   0.00000  Uiso   1.00
C118   C     0.64481   0.84434   0.96501   0.00000  Uiso   1.00
C119   C     0.59985   0.77302   0.95022   0.00000  Uiso   1.00
C120   C     0.64425   0.74674   0.95009   0.00000  Uiso   1.00
H121   H     0.54386   0.74479   0.94315   0.00000  Uiso   1.00
H122   H     0.75489   0.79576   0.96588   0.00000  Uiso   1.00
H123   H     0.75573   0.90659  -0.01727   0.00000  Uiso   1.00
N124   N     0.61347   0.23854   0.14171   0.00000  Uiso   1.00
N125   N     0.59063   0.28219   0.14243   0.00000  Uiso   1.00
C126   C     0.54299   0.26437   0.04073   0.00000  Uiso   1.00
C127   C     0.53420   0.20526  -0.02672   0.00000  Uiso   1.00
C128   C     0.58046   0.19122   0.04048   0.00000  Uiso   1.00
H129   H     0.50330   0.17974  -0.11653   0.00000  Uiso   1.00
H130   H     0.65145   0.24157   0.20899   0.00000  Uiso   1.00
H131   H     0.61117   0.32653   0.20669   0.00000  Uiso   1.00
loop_
_geom_bond_atom_site_label_1
_geom_bond_atom_site_label_2
_geom_bond_distance
_geom_bond_site_symmetry_2
_ccdc_geom_bond_type
Gd0    O6      2.260   .     S
Gd0    O8      2.219   .     S
Gd0    O11     2.191   .     S
Gd0    O3      2.271   1_556 S
Gd0    O4      2.221   1_556 S
Gd0    O7      2.233   1_556 S
Gd1    O2      2.229   .     S
Gd1    O13     2.245   .     S
Gd1    O14     2.281   .     S
Gd1    O5      2.244   1_554 S
Gd1    O10     2.246   1_554 S
Gd1    O15     2.213   1_554 S
O2     C16     1.268   .     A
O3     C16     1.279   .     A
O3     Gd0     2.271   1_554 S
O4     C12     1.276   .     A
O4     Gd0     2.221   1_554 S
O5     Gd1     2.244   1_556 S
O5     C12     1.281   1_556 A
O6     C9      1.268   .     A
O7     Gd0     2.233   1_554 S
O7     C9      1.273   1_554 A
O8     C19     1.270   .     A
C9     O7      1.273   1_556 A
C9     C126    1.469   1_556 S
O10    C19     1.270   .     A
O10    Gd1     2.246   1_556 S
O11    C18     1.259   1_556 A
C12    O5      1.281   1_554 A
C12    C86     1.459   1_554 S
O13    C18     1.268   .     A
O14    C17     1.270   .     A
O15    Gd1     2.213   1_556 S
O15    C17     1.255   1_556 A
C16    C62     1.465   .     S
C17    O15     1.255   1_554 A
C17    C120    1.467   1_554 S
C18    C104    1.460   .     S
C18    O11     1.259   1_554 A
C19    C64     1.464   .     S
Gd20   O28     2.177   .     S
Gd20   O23     2.183   1_556 S
Gd20   O24     2.229   1_556 S
Gd20   O26     2.225   1_455 S
Gd20   O27     2.251   1_456 S
Gd20   O31     2.273   1_455 S
Gd21   O22     2.266   .     S
Gd21   O25     2.227   .     S
Gd21   O34     2.242   .     S
Gd21   O30     2.296   1_554 S
Gd21   O33     2.232   1_554 S
Gd21   O35     2.242   1_554 S
O22    C36     1.278   .     A
O23    C36     1.264   .     A
O23    Gd20    2.183   1_554 S
O24    C32     1.271   .     A
O24    Gd20    2.229   1_554 S
O25    C32     1.270   .     A
O26    Gd20    2.225   1_655 S
O26    C29     1.271   1_556 A
O27    C29     1.266   .     A
O27    Gd20    2.251   1_654 S
O28    C39     1.261   .     A
C29    C102    1.454   .     S
C29    O26     1.271   1_554 A
O30    C39     1.284   .     A
O30    Gd21    2.296   1_556 S
O31    C38     1.280   .     A
O31    Gd20    2.273   1_655 S
C32    C112    1.467   .     S
O33    Gd21    2.232   1_556 S
O33    C38     1.270   1_455 A
O34    C37     1.265   1_554 A
O35    C37     1.275   .     A
O35    Gd21    2.242   1_556 S
C36    C72     1.462   .     S
C37    C88     1.464   .     S
C37    O34     1.265   1_556 A
C38    C94     1.474   .     S
C38    O33     1.270   1_655 A
C39    C70     1.466   .     S
Gd40   O46     2.237   .     S
Gd40   O48     2.258   .     S
Gd40   O51     2.243   .     S
Gd40   O43     2.287   1_556 S
Gd40   O44     2.229   1_566 S
Gd40   O47     2.250   1_556 S
Gd41   O42     2.196   .     S
Gd41   O54     2.297   .     S
Gd41   O45     2.240   1_554 S
Gd41   O50     2.204   1_554 S
Gd41   O53     2.212   1_545 S
Gd41   O55     2.241   1_554 S
O42    C56     1.263   .     A
O43    Gd40    2.287   1_554 S
O43    C56     1.285   1_565 A
O44    C52     1.270   .     A
O44    Gd40    2.229   1_544 S
O45    Gd41    2.240   1_556 S
O45    C52     1.279   1_556 A
O46    C49     1.263   .     A
O47    Gd40    2.250   1_554 S
O47    C49     1.272   1_554 A
O48    C59     1.276   1_565 A
C49    O47     1.272   1_556 A
C49    C110    1.458   1_556 S
O50    C59     1.266   .     A
O50    Gd41    2.204   1_556 S
O51    C58     1.273   .     A
C52    C128    1.466   .     S
C52    O45     1.279   1_554 A
O53    Gd41    2.212   1_565 S
O53    C58     1.269   1_554 A
O54    C57     1.260   .     A
O55    Gd41    2.241   1_556 S
O55    C57     1.247   1_556 A
C56    C78     1.464   .     S
C56    O43     1.285   1_545 A
C57    O55     1.247   1_554 A
C57    C96     1.473   1_554 S
C58    C118    1.468   .     S
C58    O53     1.269   1_556 A
C59    C80     1.464   .     S
C59    O48     1.276   1_545 A
N60    N61     1.317   .     A
N60    C64     1.348   .     A
N60    H66     1.046   .     S
N61    C62     1.348   .     A
N61    H67     1.045   .     S
C62    C63     1.396   .     A
C63    C64     1.392   .     A
C63    H65     1.082   .     S
N68    N69     1.311   .     A
N68    C72     1.345   .     A
N68    H74     1.045   .     S
N69    C70     1.348   .     A
N69    H75     1.045   .     S
C70    C71     1.396   .     A
C71    C72     1.397   .     A
C71    H73     1.083   .     S
N76    N77     1.317   .     A
N76    C80     1.348   .     A
N76    H82     1.046   .     S
N77    C78     1.347   .     A
N77    H83     1.046   .     S
C78    C79     1.394   .     A
C79    C80     1.394   .     A
C79    H81     1.082   .     S
N84    N85     1.321   .     A
N84    C88     1.348   .     A
N84    H90     1.044   .     S
N85    C86     1.347   .     A
N85    H91     1.044   .     S
C86    C87     1.382   1_556 A
C86    C12     1.459   1_556 S
C87    H89     1.082   .     S
C87    C86     1.382   1_554 A
C87    C88     1.385   1_554 A
C88    C87     1.385   1_556 A
N92    N93     1.321   .     A
N92    C96     1.349   .     A
N92    H98     1.044   .     S
N93    C94     1.346   .     A
N93    H99     1.042   1_655 S
C94    C95     1.394   .     A
C95    C96     1.388   .     A
C95    H97     1.080   .     S
C96    C57     1.473   1_556 S
H99    N93     1.042   1_455 S
N100   N101    1.315   .     A
N100   H106    1.044   .     S
N100   C104    1.348   1_556 A
N101   H107    1.042   .     S
N101   C102    1.346   1_556 A
C102   C103    1.387   .     A
C102   N101    1.346   1_554 A
C103   C104    1.386   .     A
C103   H105    1.082   .     S
C104   N100    1.348   1_554 A
N108   N109    1.323   .     A
N108   C112    1.349   .     A
N108   H114    1.043   1_554 S
N109   C110    1.348   .     A
N109   H115    1.044   1_554 S
C110   C111    1.383   .     A
C110   C49     1.458   1_554 S
C111   C112    1.384   .     A
C111   H113    1.083   .     S
H114   N108    1.043   1_556 S
H115   N109    1.044   1_556 S
N116   C120    1.348   .     A
N116   H122    1.044   .     S
N116   N117    1.315   1_556 A
N117   H123    1.046   .     S
N117   N116    1.315   1_554 A
N117   C118    1.350   1_554 A
C118   C119    1.396   .     A
C118   N117    1.350   1_556 A
C119   C120    1.394   .     A
C119   H121    1.083   .     S
C120   C17     1.467   1_556 S
N124   N125    1.319   .     A
N124   C128    1.347   .     A
N124   H130    1.047   .     S
N125   C126    1.355   .     A
N125   H131    1.046   .     S
C126   C127    1.393   .     A
C126   C9      1.469   1_554 S
C127   C128    1.394   .     A
C127   H129    1.083   .     S
