data_kag+N394+E8
_audit_creation_date              2025-01-21
_audit_creation_method            'Materials Studio'
_symmetry_space_group_name_H-M    'P1'
_symmetry_Int_Tables_number       1
_symmetry_cell_setting            triclinic
loop_
_symmetry_equiv_pos_as_xyz
  x,y,z
_cell_length_a                    26.3582
_cell_length_b                    29.2449
_cell_length_c                    12.1427
_cell_angle_alpha                 94.0975
_cell_angle_beta                  96.1202
_cell_angle_gamma                 110.9243
loop_
_atom_site_label
_atom_site_type_symbol
_atom_site_fract_x
_atom_site_fract_y
_atom_site_fract_z
_atom_site_U_iso_or_equiv
_atom_site_adp_type
_atom_site_occupancy
Pr0    Pr    0.49693   0.54035  -0.05138   0.00000  Uiso   1.00
Pr1    Pr    0.48275   0.43271   1.00192   0.00000  Uiso   1.00
O2     O     0.39692   0.43286   1.03321   0.00000  Uiso   1.00
O3     O     0.40665   0.50823  -0.02501   0.00000  Uiso   1.00
O4     O     0.47863   0.59334   0.83766   0.00000  Uiso   1.00
O5     O     0.52262   0.62194   0.00268   0.00000  Uiso   1.00
O6     O     0.52226   0.50747   0.10035   0.00000  Uiso   1.00
O7     O     0.46813   0.54497   0.12206   0.00000  Uiso   1.00
C8     C     0.49621   0.45373   0.78591   0.00000  Uiso   1.00
C9     C     0.37836   0.46744   0.01096   0.00000  Uiso   1.00
C10    C     0.50112   0.63054   0.91137   0.00000  Uiso   1.00
C11    C     0.47731   0.34068   0.03353   0.00000  Uiso   1.00
C12    C     0.60356   0.51163   0.94889   0.00000  Uiso   1.00
C13    C     0.49092   0.52120   0.16917   0.00000  Uiso   1.00
O14    O     0.58478   0.54674  -0.06319   0.00000  Uiso   1.00
O15    O     0.57407   0.46671   0.96711   0.00000  Uiso   1.00
O16    O     0.50310   0.37796   0.10655   0.00000  Uiso   1.00
O17    O     0.45355   0.35031   0.94551   0.00000  Uiso   1.00
O18    O     0.46060   0.46495   0.84831   0.00000  Uiso   1.00
O19    O     0.52213   0.43381   0.83922   0.00000  Uiso   1.00
Pr20   Pr    0.96625   0.44983   1.03783   0.00000  Uiso   1.00
Pr21   Pr    0.03751   0.57056   0.00493   0.00000  Uiso   1.00
O22    O     0.94317   0.55524   0.00524   0.00000  Uiso   1.00
O23    O     0.90674   0.47570   0.93087   0.00000  Uiso   1.00
O24    O     0.88300   0.39680   0.06257   0.00000  Uiso   1.00
O25    O     0.93262   0.37014   0.96297   0.00000  Uiso   1.00
O26    O     0.02667   0.49298   0.92496   0.00000  Uiso   1.00
O27    O     0.94497   0.45726   0.84834   0.00000  Uiso   1.00
C28    C     0.01684   0.54046   0.21474   0.00000  Uiso   1.00
C29    C     0.90142   0.51643   0.96085   0.00000  Uiso   1.00
C30    C     0.88672   0.36106   0.00110   0.00000  Uiso   1.00
C31    C     0.11145   0.66026   0.99193   0.00000  Uiso   1.00
C32    C     0.10647   0.50991   0.07597   0.00000  Uiso   1.00
C33    C     0.99060   0.48091   0.82927   0.00000  Uiso   1.00
O34    O     0.06279   0.47226   1.03362   0.00000  Uiso   1.00
O35    O     0.10424   0.55208   0.10353   0.00000  Uiso   1.00
O36    O     0.11007   0.62077   0.93806   0.00000  Uiso   1.00
O37    O     0.07407   0.65451   0.05538   0.00000  Uiso   1.00
O38    O     0.97909   0.52704   0.12100   0.00000  Uiso   1.00
O39    O     0.06141   0.56676   0.19534   0.00000  Uiso   1.00
Pr40   Pr    0.58382   0.02602   0.01394   0.00000  Uiso   1.00
Pr41   Pr    0.45367   0.97213   1.02215   0.00000  Uiso   1.00
O42    O     0.46053   0.04957   0.09380   0.00000  Uiso   1.00
O43    O     0.55097   0.08609   0.07378   0.00000  Uiso   1.00
O44    O     0.64379   0.08165   0.92070   0.00000  Uiso   1.00
O45    O     0.60163   0.10889   0.03361   0.00000  Uiso   1.00
O46    O     0.53268   0.98103   0.12470   0.00000  Uiso   1.00
O47    O     0.60883   0.03416   0.20617   0.00000  Uiso   1.00
C48    C     0.49164   0.97421   0.81978   0.00000  Uiso   1.00
C49    C     0.50537   0.08783   0.09995   0.00000  Uiso   1.00
C50    C     0.63600   0.11899   0.96463   0.00000  Uiso   1.00
C51    C     0.34795   0.91598   0.02613   0.00000  Uiso   1.00
C52    C     0.52832   0.90514   0.96500   0.00000  Uiso   1.00
C53    C     0.56345   0.00718   0.22120   0.00000  Uiso   1.00
O54    O     0.57226   0.94419   0.97165   0.00000  Uiso   1.00
O55    O     0.47932   0.90557   0.97247   0.00000  Uiso   1.00
O56    O     0.38587   0.92158   0.10641   0.00000  Uiso   1.00
O57    O     0.36328   0.94181   0.94697   0.00000  Uiso   1.00
O58    O     0.50636   0.01407   0.89823   0.00000  Uiso   1.00
O59    O     0.45844   0.93755   0.84722   0.00000  Uiso   1.00
C60    C     0.51575   0.48445   0.45250   0.00000  Uiso   1.00
C61    C     0.47159   0.48922   0.50154   0.00000  Uiso   1.00
N62    N     0.43496   0.50397   0.44121   0.00000  Uiso   1.00
C63    C     0.44044   0.51418   0.33444   0.00000  Uiso   1.00
C64    C     0.48454   0.50943   0.28475   0.00000  Uiso   1.00
N65    N     0.52118   0.49443   0.34529   0.00000  Uiso   1.00
N66    N     0.55254   0.46998   0.51326   0.00000  Uiso   1.00
C67    C     0.54734   0.46026   0.62050   0.00000  Uiso   1.00
C68    C     0.50316   0.46490   0.66989   0.00000  Uiso   1.00
N69    N     0.46628   0.47937   0.60870   0.00000  Uiso   1.00
H70    H     0.41007   0.52526   0.28796   0.00000  Uiso   1.00
H71    H     0.57766   0.44915   0.66710   0.00000  Uiso   1.00
C72    C     0.97783   0.49380   0.52693   0.00000  Uiso   1.00
C73    C     0.03130   0.52554   0.51657   0.00000  Uiso   1.00
N74    N     0.07008   0.54163   0.60822   0.00000  Uiso   1.00
C75    C     0.05794   0.52764   0.70965   0.00000  Uiso   1.00
C76    C     0.00454   0.49630   0.72031   0.00000  Uiso   1.00
N77    N     0.96561   0.48014   0.62843   0.00000  Uiso   1.00
N78    N     0.93904   0.47760   0.43560   0.00000  Uiso   1.00
C79    C     0.95109   0.49179   0.33430   0.00000  Uiso   1.00
C80    C     1.00426   0.52389   0.32365   0.00000  Uiso   1.00
N81    N     0.04337   0.53981   0.41512   0.00000  Uiso   1.00
H82    H     0.08987   0.54075   0.78114   0.00000  Uiso   1.00
H83    H     0.91897   0.47859   0.26318   0.00000  Uiso   1.00
C84    C     0.55738   0.99605   0.52135   0.00000  Uiso   1.00
C85    C     0.50018  -0.02235   0.52191   0.00000  Uiso   1.00
N86    N     0.46586  -0.02874   0.42606   0.00000  Uiso   1.00
C87    C     0.48627  -0.01811   0.32935   0.00000  Uiso   1.00
C88    C     0.54316  -0.00041   0.32791   0.00000  Uiso   1.00
N89    N     0.57778   1.00658   0.42416   0.00000  Uiso   1.00
N90    N     0.59149   1.00302   0.61821   0.00000  Uiso   1.00
C91    C     0.57086   0.99360   0.71548   0.00000  Uiso   1.00
C92    C     0.51395   0.97636   0.71570   0.00000  Uiso   1.00
N93    N     0.47980  -0.03143   0.61902   0.00000  Uiso   1.00
H94    H     0.45826  -0.02280   0.25409   0.00000  Uiso   1.00
H95    H     0.59867   1.00006   0.79226   0.00000  Uiso   1.00
C96    C     0.25981   0.50515   1.02670   0.00000  Uiso   1.00
C97    C     0.22329   0.46685   0.07444   0.00000  Uiso   1.00
N98    N     0.23763   0.42822   0.10049   0.00000  Uiso   1.00
C99    C     0.28715   0.42647   0.08170   0.00000  Uiso   1.00
C100   C     0.32315   0.46446   0.03171   0.00000  Uiso   1.00
N101   N     0.30798   0.50256   1.00563   0.00000  Uiso   1.00
N102   N     0.24731   0.54488   1.00329   0.00000  Uiso   1.00
C103   C     0.19919   0.54779   1.02531   0.00000  Uiso   1.00
C104   C     0.16118   0.50858   0.06898   0.00000  Uiso   1.00
N105   N     0.17389   0.46870   0.09267   0.00000  Uiso   1.00
H106   H     0.29781   0.39545   0.10407   0.00000  Uiso   1.00
H107   H     0.18653   0.57808   1.00394   0.00000  Uiso   1.00
C108   C     0.74683   0.26298   0.96538   0.00000  Uiso   1.00
C109   C     0.75957   0.22140   0.93748   0.00000  Uiso   1.00
N110   N     0.81188   0.22611   0.92732   0.00000  Uiso   1.00
C111   C     0.85302   0.27095  -0.05571   0.00000  Uiso   1.00
C112   C     0.84153   0.31293  -0.02406   0.00000  Uiso   1.00
N113   N     0.78837   0.30816  -0.01560   0.00000  Uiso   1.00
N114   N     0.69375   0.25705   0.97725   0.00000  Uiso   1.00
C115   C     0.65331   0.21106   0.96834   0.00000  Uiso   1.00
C116   C     0.66858   0.16935   0.94769   0.00000  Uiso   1.00
N117   N     0.72037   0.17625   0.92951   0.00000  Uiso   1.00
H118   H     0.89462   0.27336  -0.06244   0.00000  Uiso   1.00
H119   H     0.61016   0.20851   0.97780   0.00000  Uiso   1.00
C120   C     0.77083   0.53916   0.93221   0.00000  Uiso   1.00
C121   C     0.73806   0.49935  -0.01662   0.00000  Uiso   1.00
N122   N     0.75975   0.46852   0.02941   0.00000  Uiso   1.00
C123   C     0.81280   0.47493   0.02476   0.00000  Uiso   1.00
C124   C     0.84555   0.51346   0.97045   0.00000  Uiso   1.00
N125   N     0.82431   0.54556   0.92668   0.00000  Uiso   1.00
N126   N     0.74817   0.57006   0.88764   0.00000  Uiso   1.00
C127   C     0.69422   0.56258   0.89159   0.00000  Uiso   1.00
C128   C     0.66161   0.52215   0.94154   0.00000  Uiso   1.00
N129   N     0.68464   0.49172  -0.01393   0.00000  Uiso   1.00
H130   H     0.82925   0.45007   0.06292   0.00000  Uiso   1.00
H131   H     0.67719   0.58799   0.85666   0.00000  Uiso   1.00
C132   C     0.23935   0.79304  -0.04446   0.00000  Uiso   1.00
C133   C     0.20371   0.79310   0.03381   0.00000  Uiso   1.00
N134   N     0.21337   0.83542   0.10156   0.00000  Uiso   1.00
C135   C     0.25787   0.87707   0.09685   0.00000  Uiso   1.00
C136   C     0.29370   0.87670   0.01920   0.00000  Uiso   1.00
N137   N     0.28338   0.83448  -0.04935   0.00000  Uiso   1.00
N138   N     0.23148   0.75072  -0.10973   0.00000  Uiso   1.00
C139   C     0.18946   0.70836   0.89950   0.00000  Uiso   1.00
C140   C     0.15408   0.70774   0.97884   0.00000  Uiso   1.00
N141   N     0.16156   0.75044   1.04377   0.00000  Uiso   1.00
H142   H     0.26549   0.90972   0.15408   0.00000  Uiso   1.00
H143   H     0.18414   0.67464   0.84707   0.00000  Uiso   1.00
C144   C     0.49409   0.77115   0.89303   0.00000  Uiso   1.00
C145   C     0.54230   0.76570   0.94066   0.00000  Uiso   1.00
N146   N     0.58617   0.80621   0.98676   0.00000  Uiso   1.00
C147   C     0.58342   0.85185   0.99012   0.00000  Uiso   1.00
C148   C     0.53414   0.85713   0.94859   0.00000  Uiso   1.00
N149   N     0.49054   0.81649   0.90029   0.00000  Uiso   1.00
N150   N     0.45080   0.73069   0.84398   0.00000  Uiso   1.00
C151   C     0.45335   0.68494   0.84230   0.00000  Uiso   1.00
C152   C     0.50033   0.67931   0.89587   0.00000  Uiso   1.00
N153   N     0.54401   0.71995   0.94283   0.00000  Uiso   1.00
H154   H     0.61877   0.88336   1.02927   0.00000  Uiso   1.00
H155   H     0.41778   0.65316   0.80541   0.00000  Uiso   1.00
C156   C     0.51615   0.23447   0.10676   0.00000  Uiso   1.00
C157   C     0.46527   0.19518   0.07708   0.00000  Uiso   1.00
N158   N     0.42093   0.20412   0.03236   0.00000  Uiso   1.00
C159   C     0.42451   0.25053   0.01608   0.00000  Uiso   1.00
C160   C     0.47411   0.29024   0.04942   0.00000  Uiso   1.00
N161   N     0.51906   0.28134   0.09424   0.00000  Uiso   1.00
N162   N     0.56168   0.22478   0.14468   0.00000  Uiso   1.00
C163   C     0.55744   0.17817   0.15731   0.00000  Uiso   1.00
C164   C     0.50660   0.13833   0.12474   0.00000  Uiso   1.00
N165   N     0.46182   0.14821   0.08621   0.00000  Uiso   1.00
H166   H     0.38836   0.25625   0.97952   0.00000  Uiso   1.00
H167   H     0.59469   0.17311   0.18538   0.00000  Uiso   1.00
loop_
_geom_bond_atom_site_label_1
_geom_bond_atom_site_label_2
_geom_bond_distance
_geom_bond_site_symmetry_2
_ccdc_geom_bond_type
Pr0    O3      2.293   .     S
Pr0    O5      2.260   .     S
Pr0    O6      2.283   .     S
Pr0    O7      2.324   .     S
Pr0    O14     2.277   .     S
Pr0    O4      2.268   1_554 S
Pr0    O18     2.263   1_554 S
Pr1    O2      2.335   .     S
Pr1    O15     2.351   .     S
Pr1    O17     2.279   .     S
Pr1    O18     2.263   .     S
Pr1    O19     2.325   .     S
Pr1    O6      2.242   1_556 S
Pr1    O16     2.286   1_556 S
O2     C9      1.304   1_556 A
O3     C9      1.295   .     A
O4     C10     1.274   .     A
O4     Pr0     2.268   1_556 S
O5     C10     1.273   1_554 A
O6     C13     1.370   .     S
O6     Pr1     2.242   1_554 S
O7     C13     1.205   .     D
C8     O18     1.378   .     S
C8     O19     1.212   .     D
C8     C68     1.484   .     S
C9     C100    1.476   .     S
C9     O2      1.304   1_554 A
C10    C152    1.459   .     S
C10    O5      1.273   1_556 A
C11    O16     1.281   .     A
C11    C160    1.475   .     S
C11    O17     1.281   1_554 A
C12    O15     1.314   .     A
C12    C128    1.463   .     S
C12    O14     1.300   1_556 A
C13    C64     1.481   .     S
O14    C12     1.300   1_554 A
O16    Pr1     2.286   1_554 S
O17    C11     1.281   1_556 A
O18    Pr0     2.263   1_556 S
Pr20   O23     2.297   .     S
Pr20   O25     2.257   .     S
Pr20   O27     2.354   .     S
Pr20   O24     2.255   1_556 S
Pr20   O26     2.299   1_655 S
Pr20   O34     2.398   1_655 S
Pr20   O38     2.300   1_556 S
Pr21   O35     2.267   .     S
Pr21   O37     2.302   .     S
Pr21   O39     2.352   .     S
Pr21   O22     2.365   1_455 S
Pr21   O26     2.310   1_554 S
Pr21   O36     2.229   1_554 S
Pr21   O38     2.302   1_455 S
O22    Pr21    2.365   1_655 S
O22    C29     1.297   1_554 A
O23    C29     1.280   .     A
O24    C30     1.279   .     A
O24    Pr20    2.255   1_554 S
O25    C30     1.287   1_556 A
O26    Pr20    2.299   1_455 S
O26    Pr21    2.310   1_556 S
O26    C33     1.358   1_455 S
O27    C33     1.211   .     D
C28    O39     1.211   .     D
C28    O38     1.362   1_455 S
C28    C80     1.471   1_455 S
C29    C124    1.462   .     S
C29    O22     1.297   1_556 A
C30    C112    1.469   .     S
C30    O25     1.287   1_554 A
C31    O36     1.273   .     A
C31    C140    1.474   .     S
C31    O37     1.286   1_556 A
C32    O35     1.278   .     A
C32    C104    1.468   .     S
C32    O34     1.300   1_554 A
C33    O26     1.358   1_655 S
C33    C76     1.469   1_655 S
O34    Pr20    2.398   1_455 S
O34    C32     1.300   1_556 A
O36    Pr21    2.229   1_556 S
O37    C31     1.286   1_554 A
O38    Pr20    2.300   1_554 S
O38    Pr21    2.302   1_655 S
O38    C28     1.362   1_655 S
Pr40   O43     2.324   .     S
Pr40   O45     2.287   .     S
Pr40   O47     2.328   .     S
Pr40   O44     2.288   1_554 S
Pr40   O46     2.175   1_545 S
Pr40   O54     2.314   1_544 S
Pr40   O58     2.252   1_554 S
Pr41   O55     2.338   .     S
Pr41   O57     2.282   .     S
Pr41   O59     2.322   .     S
Pr41   O42     2.305   1_566 S
Pr41   O46     2.229   1_556 S
Pr41   O56     2.268   1_556 S
Pr41   O58     2.278   1_565 S
O42    C49     1.296   .     A
O42    Pr41    2.305   1_544 S
O43    C49     1.293   .     A
O44    C50     1.273   .     A
O44    Pr40    2.288   1_556 S
O45    C50     1.271   1_554 A
O46    Pr40    2.175   1_565 S
O46    Pr41    2.229   1_554 S
O46    C53     1.357   1_565 S
O47    C53     1.217   .     D
C48    O59     1.212   .     D
C48    C92     1.446   .     S
C48    O58     1.362   1_565 S
C49    C164    1.474   .     S
C50    C116    1.458   .     S
C50    O45     1.271   1_556 A
C51    O56     1.276   .     A
C51    C136    1.469   .     S
C51    O57     1.275   1_554 A
C52    O54     1.294   .     A
C52    O55     1.309   .     A
C52    C148    1.468   .     S
C53    C88     1.455   .     S
C53    O46     1.357   1_545 S
O54    Pr40    2.314   1_566 S
O56    Pr41    2.268   1_554 S
O57    C51     1.275   1_556 A
O58    Pr40    2.252   1_556 S
O58    Pr41    2.278   1_545 S
O58    C48     1.362   1_545 S
C60    C61     1.407   .     A
C60    N65     1.365   .     A
C60    N66     1.360   .     A
C61    N62     1.359   .     A
C61    N69     1.364   .     A
N62    C63     1.362   .     A
C63    C64     1.410   .     A
C63    H70     1.086   .     S
C64    N65     1.365   .     A
N66    C67     1.363   .     A
C67    C68     1.409   .     A
C67    H71     1.086   .     S
C68    N69     1.364   .     A
C72    N77     1.359   .     A
C72    N78     1.355   .     A
C72    C73     1.408   1_655 A
C73    N74     1.358   .     A
C73    N81     1.362   .     A
C73    C72     1.408   1_455 A
N74    C75     1.360   .     A
C75    C76     1.404   .     A
C75    H82     1.084   .     S
C76    N77     1.362   1_455 A
C76    C33     1.469   1_455 S
N77    C76     1.362   1_655 A
N78    C79     1.360   .     A
C79    C80     1.406   .     A
C79    H83     1.084   .     S
C80    N81     1.361   1_655 A
C80    C28     1.471   1_655 S
N81    C80     1.361   1_455 A
C84    N89     1.359   .     A
C84    N90     1.358   .     A
C84    C85     1.409   1_565 A
C85    N86     1.353   .     A
C85    N93     1.352   .     A
C85    C84     1.409   1_545 A
N86    C87     1.354   .     A
C87    C88     1.403   .     A
C87    H94     1.079   .     S
C88    N89     1.358   1_545 A
N89    C88     1.358   1_565 A
N90    C91     1.358   .     A
C91    C92     1.402   .     A
C91    H95     1.083   .     S
C92    N93     1.353   1_565 A
N93    C92     1.353   1_545 A
C96    N101    1.348   .     A
C96    N102    1.357   .     A
C96    C97     1.400   1_556 A
C97    N98     1.360   .     A
C97    N105    1.363   .     A
C97    C96     1.400   1_554 A
N98    C99     1.367   .     A
C99    C100    1.403   .     A
C99    H106    1.085   .     S
C100   N101    1.358   1_554 A
N101   C100    1.358   1_556 A
N102   C103    1.354   .     A
C103   H107    1.090   .     S
C103   C104    1.407   1_556 A
C104   N105    1.364   .     A
C104   C103    1.407   1_554 A
C108   C109    1.401   .     A
C108   N114    1.372   .     A
C108   N113    1.367   1_556 A
C109   N110    1.356   .     A
C109   N117    1.344   .     A
N110   C111    1.355   1_556 A
C111   C112    1.403   .     A
C111   H118    1.086   .     S
C111   N110    1.355   1_554 A
C112   N113    1.374   .     A
N113   C108    1.367   1_554 A
N114   C115    1.374   .     A
C115   C116    1.429   .     A
C115   H119    1.132   .     S
C116   N117    1.352   .     A
C120   N125    1.364   .     A
C120   N126    1.361   .     A
C120   C121    1.410   1_556 A
C121   N122    1.351   .     A
C121   N129    1.349   .     A
C121   C120    1.410   1_554 A
N122   C123    1.351   .     A
C123   H130    1.078   .     S
C123   C124    1.408   1_554 A
C124   N125    1.364   .     A
C124   C123    1.408   1_556 A
N126   C127    1.366   .     A
C127   C128    1.412   .     A
C127   H131    1.084   .     S
C128   N129    1.356   1_556 A
N129   C128    1.356   1_554 A
C132   C133    1.406   .     A
C132   N137    1.356   .     A
C132   N138    1.358   .     A
C133   N134    1.363   .     A
C133   N141    1.366   1_554 A
N134   C135    1.366   .     A
C135   C136    1.406   .     A
C135   H142    1.083   .     S
C136   N137    1.362   .     A
N138   C139    1.357   1_554 A
C139   C140    1.407   .     A
C139   H143    1.091   .     S
C139   N138    1.357   1_556 A
C140   N141    1.368   .     A
N141   C133    1.366   1_556 A
C144   C145    1.406   .     A
C144   N149    1.360   .     A
C144   N150    1.359   .     A
C145   N146    1.357   .     A
C145   N153    1.357   .     A
N146   C147    1.360   .     A
C147   C148    1.407   .     A
C147   H154    1.083   .     S
C148   N149    1.363   .     A
N150   C151    1.362   .     A
C151   C152    1.405   .     A
C151   H155    1.083   .     S
C152   N153    1.360   .     A
C156   C157    1.409   .     A
C156   N161    1.366   .     A
C156   N162    1.370   .     A
C157   N158    1.354   .     A
C157   N165    1.357   .     A
N158   C159    1.357   .     A
C159   C160    1.399   .     A
C159   H166    1.081   1_554 S
C160   N161    1.368   .     A
N162   C163    1.349   .     A
C163   C164    1.420   .     A
C163   H167    1.068   .     S
C164   N165    1.357   .     A
H166   C159    1.081   1_556 S
