data_kag+N155+E35
_audit_creation_date              2025-01-21
_audit_creation_method            'Materials Studio'
_symmetry_space_group_name_H-M    'P1'
_symmetry_Int_Tables_number       1
_symmetry_cell_setting            triclinic
loop_
_symmetry_equiv_pos_as_xyz
  x,y,z
_cell_length_a                    32.7200
_cell_length_b                    34.6350
_cell_length_c                    14.9807
_cell_angle_alpha                 90.2208
_cell_angle_beta                  90.0135
_cell_angle_gamma                 124.8623
loop_
_atom_site_label
_atom_site_type_symbol
_atom_site_fract_x
_atom_site_fract_y
_atom_site_fract_z
_atom_site_U_iso_or_equiv
_atom_site_adp_type
_atom_site_occupancy
C0     C     0.45145   0.36643   0.00513   0.00000  Uiso   1.00
Ho1    Ho    0.48099   0.45360   0.00584   0.00000  Uiso   1.00
C2     C     0.55015   0.63891   0.99922   0.00000  Uiso   1.00
Ho3    Ho    0.51856   0.55102   1.00431   0.00000  Uiso   1.00
O4     O     0.45904   0.38950   0.07786   0.00000  Uiso   1.00
O5     O     0.45743   0.38957   0.93438   0.00000  Uiso   1.00
O6     O     0.47363   0.43031   0.14490   0.00000  Uiso   1.00
O7     O     0.50144   0.50320   0.11225   0.00000  Uiso   1.00
C8     C     0.48910   0.46921   0.17675   0.00000  Uiso   1.00
C9     C     0.51063   0.53577   0.83329   0.00000  Uiso   1.00
O10    O     0.56072   0.48239   0.00215   0.00000  Uiso   1.00
O11    O     0.59139   0.56089   1.00015   0.00000  Uiso   1.00
O12    O     0.54105   0.61398   0.92879   0.00000  Uiso   1.00
O13    O     0.54353   0.61690   0.07218   0.00000  Uiso   1.00
O14    O     0.52552   0.57427   0.86630   0.00000  Uiso   1.00
O15    O     0.49815   0.50130   0.89708   0.00000  Uiso   1.00
O16    O     0.43869   0.52218   1.00796   0.00000  Uiso   1.00
O17    O     0.40805   0.44362   0.00960   0.00000  Uiso   1.00
C18    C     0.40217   0.47778   1.01022   0.00000  Uiso   1.00
C19    C     0.59722   0.52673  -0.00041   0.00000  Uiso   1.00
C20    C     0.08391   0.45136   0.01223   0.00000  Uiso   1.00
Ho21   Ho    0.02680   0.48098   0.00615   0.00000  Uiso   1.00
C22    C     0.91270   0.54924   0.99421   0.00000  Uiso   1.00
Ho23   Ho    0.96939   0.51930   1.00156   0.00000  Uiso   1.00
O24    O     0.06744   0.45948   0.08246   0.00000  Uiso   1.00
O25    O     0.06714   0.45630   0.93912   0.00000  Uiso   1.00
O26    O     0.04220   0.47333   0.14389   0.00000  Uiso   1.00
O27    O     0.99829   0.50159   0.11234   0.00000  Uiso   1.00
C28    C     1.01948   0.48854   0.17634   0.00000  Uiso   1.00
C29    C    -0.02249   0.51143   0.83140   0.00000  Uiso   1.00
O30    O     0.08888   0.55590   0.00466   0.00000  Uiso   1.00
O31    O     0.04315   0.58717   0.99871   0.00000  Uiso   1.00
O32    O     0.92897   0.54072   0.92418   0.00000  Uiso   1.00
O33    O     0.92917   0.54420   0.06756   0.00000  Uiso   1.00
O34    O     0.95475   0.52699   0.86206   0.00000  Uiso   1.00
O35    O    -0.00205   0.49865   0.89686   0.00000  Uiso   1.00
O36    O     0.90733   0.44447   1.00285   0.00000  Uiso   1.00
O37    O     0.95295   0.41308   0.00905   0.00000  Uiso   1.00
C38    C     0.91081   0.40893   1.00615   0.00000  Uiso   1.00
C39    C     0.08533   0.59140   0.00132   0.00000  Uiso   1.00
C40    C     0.56208   0.93049   0.99844   0.00000  Uiso   1.00
Ho41   Ho    0.52261   0.97738   1.00309   0.00000  Uiso   1.00
C42    C     0.43472   0.07129   0.00754   0.00000  Uiso   1.00
Ho43   Ho    0.47307   0.02335   0.00662   0.00000  Uiso   1.00
O44    O     0.55391   0.94599   0.92769   0.00000  Uiso   1.00
O45    O     0.55195   0.94279   0.07111   0.00000  Uiso   1.00
O46    O     0.53648   0.96807   0.86356   0.00000  Uiso   1.00
O47    O     0.49914   0.00230   0.89790   0.00000  Uiso   1.00
C48    C     0.51739  -0.01289   0.83258   0.00000  Uiso   1.00
C49    C     0.47764   0.01441   0.17690   0.00000  Uiso   1.00
O50    O     0.44573   0.91447   0.99608   0.00000  Uiso   1.00
O51    O     0.40507   0.95081   0.00164   0.00000  Uiso   1.00
O52    O     0.44249   0.05633   0.07956   0.00000  Uiso   1.00
O53    O     0.44404   0.05743   0.93607   0.00000  Uiso   1.00
O54    O     0.45838   0.03291   0.14396   0.00000  Uiso   1.00
O55    O     0.49649   0.99862   0.11336   0.00000  Uiso   1.00
O56    O     0.54997   0.08616   0.01328   0.00000  Uiso   1.00
O57    O     0.59064   0.04986   1.00799   0.00000  Uiso   1.00
C58    C     0.59031   0.08723   0.01274   0.00000  Uiso   1.00
C59    C     0.40540   0.91344   0.99651   0.00000  Uiso   1.00
C60    C     0.50085   0.50172   0.45497   0.00000  Uiso   1.00
C61    C     0.52328   0.53801   0.39155   0.00000  Uiso   1.00
C62    C     0.51954   0.52693   0.30113   0.00000  Uiso   1.00
C63    C     0.49418   0.48000   0.27315   0.00000  Uiso   1.00
C64    C     0.47343   0.44469   0.33822   0.00000  Uiso   1.00
N65    N     0.47716   0.45631   0.42634   0.00000  Uiso   1.00
C66    C     0.50296   0.51163   0.55209   0.00000  Uiso   1.00
N67    N     0.49480   0.47822   0.61153   0.00000  Uiso   1.00
C68    C     0.49655   0.48494   0.70141   0.00000  Uiso   1.00
C69    C     0.50707   0.52738   0.73617   0.00000  Uiso   1.00
C70    C     0.51477   0.56199   0.67656   0.00000  Uiso   1.00
C71    C     0.51255   0.55425   0.58474   0.00000  Uiso   1.00
H72    H     0.53677   0.55528   0.25303   0.00000  Uiso   1.00
H73    H     0.45366   0.40803   0.31919   0.00000  Uiso   1.00
H74    H     0.49027   0.45736   0.74550   0.00000  Uiso   1.00
H75    H     0.52228   0.59497   0.70095   0.00000  Uiso   1.00
H76    H     0.54410   0.57466   0.41065   0.00000  Uiso   1.00
H77    H     0.51763   0.58130   0.54068   0.00000  Uiso   1.00
C78    C    -0.00169   0.50034   0.55413   0.00000  Uiso   1.00
C79    C     0.01270   0.48050   0.61774   0.00000  Uiso   1.00
C80    C     0.00571   0.48434   0.70803   0.00000  Uiso   1.00
C81    C     0.98358   0.50697   0.73555   0.00000  Uiso   1.00
C82    C     0.96847   0.52536   0.67045   0.00000  Uiso   1.00
N83    N     0.97623   0.52172   0.58249   0.00000  Uiso   1.00
C84    C     0.00552   0.49783   0.45716   0.00000  Uiso   1.00
N85    N     0.97901   0.50533   0.39821   0.00000  Uiso   1.00
C86    C     0.98318   0.50303   0.30832   0.00000  Uiso   1.00
C87    C     0.01529   0.49232   0.27322   0.00000  Uiso   1.00
C88    C     0.04346   0.48509   0.33231   0.00000  Uiso   1.00
C89    C     0.03915   0.48832   0.42403   0.00000  Uiso   1.00
H90    H     0.01745   0.46934   0.75639   0.00000  Uiso   1.00
H91    H     0.95108   0.54298   0.68933   0.00000  Uiso   1.00
H92    H     0.96099   0.50899   0.26454   0.00000  Uiso   1.00
H93    H     0.06915   0.47731   0.30759   0.00000  Uiso   1.00
H94    H     0.02851   0.46152   0.59898   0.00000  Uiso   1.00
H95    H     0.06258   0.48396   0.46754   0.00000  Uiso   1.00
C96    C     0.49208   0.00493   0.45802   0.00000  Uiso   1.00
C97    C     0.46348   0.02057   0.42577   0.00000  Uiso   1.00
C98    C     0.45864   0.02358   0.33402   0.00000  Uiso   1.00
C99    C     0.48135   0.01027   0.27400   0.00000  Uiso   1.00
C100   C     0.50836  -0.00640   0.30834   0.00000  Uiso   1.00
N101   N     0.51311  -0.00849   0.39811   0.00000  Uiso   1.00
C102   C     0.49962   0.00204   0.55503   0.00000  Uiso   1.00
N103   N     0.51678  -0.02376   0.58268   0.00000  Uiso   1.00
C104   C     0.52386  -0.02852   0.67055   0.00000  Uiso   1.00
C105   C     0.51296  -0.00684   0.73647   0.00000  Uiso   1.00
C106   C     0.49630   0.02060   0.70960   0.00000  Uiso   1.00
C107   C     0.49011   0.02559   0.61942   0.00000  Uiso   1.00
H108   H     0.43707   0.03624   0.31009   0.00000  Uiso   1.00
H109   H     0.52621  -0.01720   0.26392   0.00000  Uiso   1.00
H110   H     0.53715  -0.04977   0.68876   0.00000  Uiso   1.00
H111   H     0.48813   0.03844   0.75842   0.00000  Uiso   1.00
H112   H     0.44440   0.03001   0.46995   0.00000  Uiso   1.00
H113   H     0.47848   0.04810   0.60146   0.00000  Uiso   1.00
C114   C     0.25615   0.44778   0.01771   0.00000  Uiso   1.00
C115   C     0.26338   0.41611   0.97439   0.00000  Uiso   1.00
C116   C     0.31087   0.42511   0.97350   0.00000  Uiso   1.00
C117   C     0.35109   0.46598   0.01415   0.00000  Uiso   1.00
C118   C     0.34206   0.49640   0.05744   0.00000  Uiso   1.00
N119   N     0.29547   0.48654   0.05861   0.00000  Uiso   1.00
C120   C     0.20744   0.44124   0.01797   0.00000  Uiso   1.00
N121   N     0.19427   0.45530   0.09085   0.00000  Uiso   1.00
C122   C     0.15260   0.45504   0.09239   0.00000  Uiso   1.00
C123   C     0.12262   0.44209   0.01594   0.00000  Uiso   1.00
C124   C     0.13472   0.42638   0.94062   0.00000  Uiso   1.00
C125   C     0.17688   0.42542   0.94172   0.00000  Uiso   1.00
H126   H     0.31640   0.40085   0.93929   0.00000  Uiso   1.00
H127   H     0.37202   0.52802   0.09039   0.00000  Uiso   1.00
H128   H     0.14460   0.46761   0.15161   0.00000  Uiso   1.00
H129   H     0.11261   0.41635   0.88018   0.00000  Uiso   1.00
H130   H     0.23268   0.38475   0.94203   0.00000  Uiso   1.00
H131   H     0.18696   0.41500   0.88205   0.00000  Uiso   1.00
C132   C     0.77385   0.27184   0.01171   0.00000  Uiso   1.00
C133   C     0.77353   0.31122   0.99186   0.00000  Uiso   1.00
C134   C     0.81821   0.35567   0.98976   0.00000  Uiso   1.00
C135   C     0.86356   0.36128   0.00644   0.00000  Uiso   1.00
C136   C     0.86244   0.32082   0.02354   0.00000  Uiso   1.00
N137   N     0.81821   0.27769   0.02574   0.00000  Uiso   1.00
C138   C     0.72688   0.22429   0.01678   0.00000  Uiso   1.00
N139   N     0.72608   0.18599  -0.00826   0.00000  Uiso   1.00
C140   C     0.68339   0.14166  -0.00809   0.00000  Uiso   1.00
C141   C     0.63812   0.13419   1.01773   0.00000  Uiso   1.00
C142   C     0.63866   0.17307   1.04657   0.00000  Uiso   1.00
C143   C     0.68278   0.21792   1.04667   0.00000  Uiso   1.00
H144   H     0.81714   0.38564   0.97468   0.00000  Uiso   1.00
H145   H     0.89651   0.32346   0.03626   0.00000  Uiso   1.00
H146   H     0.68465   0.11259  -0.03030   0.00000  Uiso   1.00
H147   H     0.60487   0.16887   1.06905   0.00000  Uiso   1.00
H148   H     0.73923   0.30780   0.97684   0.00000  Uiso   1.00
H149   H     0.68227   0.24719   1.07046   0.00000  Uiso   1.00
C150   C     0.79143   0.56260   0.99038   0.00000  Uiso   1.00
C151   C     0.82308   0.57917   0.06516   0.00000  Uiso   1.00
C152   C     0.86445   0.57697   0.06535   0.00000  Uiso   1.00
C153   C     0.87481   0.55952   0.99048   0.00000  Uiso   1.00
C154   C     0.84404   0.54620   0.91512   0.00000  Uiso   1.00
N155   N     0.80306   0.54700   0.91773   0.00000  Uiso   1.00
C156   C     0.74286   0.55621   0.99216   0.00000  Uiso   1.00
N157   N     0.70328   0.51709   0.95269   0.00000  Uiso   1.00
C158   C     0.65680   0.50734   0.95393   0.00000  Uiso   1.00
C159   C     0.64817   0.53839   0.99553   0.00000  Uiso   1.00
C160   C     0.68862   0.57966   0.03468   0.00000  Uiso   1.00
C161   C     0.73599   0.58837   0.03437   0.00000  Uiso   1.00
H162   H     0.88731   0.58737   0.12485   0.00000  Uiso   1.00
H163   H     0.85071   0.53238   0.85616   0.00000  Uiso   1.00
H164   H     0.62668   0.47537   0.92214   0.00000  Uiso   1.00
H165   H     0.68334   0.60449   0.06716   0.00000  Uiso   1.00
H166   H     0.81439   0.59101   0.12459   0.00000  Uiso   1.00
H167   H     0.76681   0.61992   0.06601   0.00000  Uiso   1.00
C168   C     0.26866   0.77654   0.99062   0.00000  Uiso   1.00
C169   C     0.31250   0.78309   0.95865   0.00000  Uiso   1.00
C170   C     0.35668   0.82790   0.95914   0.00000  Uiso   1.00
C171   C     0.35755   0.86654  -0.00914   0.00000  Uiso   1.00
C172   C     0.31254   0.85892   0.01890   0.00000  Uiso   1.00
N173   N     0.26975   0.81464   0.01841   0.00000  Uiso   1.00
C174   C     0.22179   0.72892   0.99541   0.00000  Uiso   1.00
N175   N     0.17725   0.72283   0.98213   0.00000  Uiso   1.00
C176   C     0.13319   0.67952   0.98413   0.00000  Uiso   1.00
C177   C     0.13245   0.63918   1.00059   0.00000  Uiso   1.00
C178   C     0.17800   0.64506   1.01638   0.00000  Uiso   1.00
C179   C     0.22248   0.68964   1.01406   0.00000  Uiso   1.00
H180   H     0.39023   0.83225   0.93467   0.00000  Uiso   1.00
H181   H     0.31160   0.88783   0.04338   0.00000  Uiso   1.00
H182   H     0.09895   0.67663   0.97176   0.00000  Uiso   1.00
H183   H     0.17939   0.61523   1.03092   0.00000  Uiso   1.00
H184   H     0.31270   0.75394   0.93300   0.00000  Uiso   1.00
H185   H     0.25701   0.69328   1.02790   0.00000  Uiso   1.00
C186   C     0.58528   0.82149  -0.01161   0.00000  Uiso   1.00
C187   C     0.59094   0.84658  -0.08984   0.00000  Uiso   1.00
C188   C     0.58653   0.88432  -0.08573   0.00000  Uiso   1.00
C189   C     0.57692   0.89750  -0.00422   0.00000  Uiso   1.00
C190   C     0.57487   0.87381   0.07313   0.00000  Uiso   1.00
N191   N     0.57840   0.83662   0.06735   0.00000  Uiso   1.00
C192   C     0.58212   0.77686  -0.01207   0.00000  Uiso   1.00
N193   N     0.57514   0.75473   0.06733   0.00000  Uiso   1.00
C194   C     0.56708   0.71172   0.07312   0.00000  Uiso   1.00
C195   C     0.56465   0.68777  -0.00443   0.00000  Uiso   1.00
C196   C     0.57282   0.71007  -0.08682   0.00000  Uiso   1.00
C197   C     0.58175   0.75452  -0.09110   0.00000  Uiso   1.00
H198   H     0.58858   0.90195   0.85310   0.00000  Uiso   1.00
H199   H     0.56759   0.88300   0.13741   0.00000  Uiso   1.00
H200   H     0.56071   0.69560   0.13802   0.00000  Uiso   1.00
H201   H     0.57101   0.69259  -0.14827   0.00000  Uiso   1.00
H202   H     0.59700   0.83684   0.84566   0.00000  Uiso   1.00
H203   H     0.58658   0.76978   0.84379   0.00000  Uiso   1.00
C204   C     0.42332   0.22980   0.99700   0.00000  Uiso   1.00
C205   C     0.43553   0.25622   0.91828   0.00000  Uiso   1.00
C206   C     0.44347   0.30026   0.92110   0.00000  Uiso   1.00
C207   C     0.43962   0.31843   1.00192   0.00000  Uiso   1.00
C208   C     0.42758   0.29127   0.07915   0.00000  Uiso   1.00
N209   N     0.42003   0.24833   0.07491   0.00000  Uiso   1.00
C210   C     0.41828   0.18438   0.99898   0.00000  Uiso   1.00
N211   N     0.42512   0.16936   0.07793   0.00000  Uiso   1.00
C212   C     0.42623   0.13076   0.08369   0.00000  Uiso   1.00
C213   C     0.42165   0.10560   1.00638   0.00000  Uiso   1.00
C214   C     0.41172   0.11872   0.92522   0.00000  Uiso   1.00
C215   C     0.40951   0.15772   0.92125   0.00000  Uiso   1.00
H216   H     0.45432   0.32080   0.86046   0.00000  Uiso   1.00
H217   H     0.42494   0.30443   0.14290   0.00000  Uiso   1.00
H218   H     0.43374   0.12158   0.14768   0.00000  Uiso   1.00
H219   H     0.40754   0.09989   0.86419   0.00000  Uiso   1.00
H220   H     0.44097   0.24432   0.85551   0.00000  Uiso   1.00
H221   H     0.40211   0.16712   0.85749   0.00000  Uiso   1.00
loop_
_geom_bond_atom_site_label_1
_geom_bond_atom_site_label_2
_geom_bond_distance
_geom_bond_site_symmetry_2
_ccdc_geom_bond_type
C0     O4      1.286   .     A
C0     O5      1.277   1_554 A
C0     C207    1.476   1_554 S
Ho1    O4      2.192   .     S
Ho1    O6      2.200   .     S
Ho1    O7      2.146   .     S
Ho1    O10     2.198   .     S
Ho1    O17     2.208   .     S
Ho1    O5      2.165   1_554 S
Ho1    O15     2.159   1_554 S
C2     O12     1.283   .     A
C2     O13     1.281   1_556 A
C2     C195    1.475   1_556 S
Ho3    O11     2.206   .     S
Ho3    O12     2.182   .     S
Ho3    O14     2.186   .     S
Ho3    O15     2.158   .     S
Ho3    O16     2.201   .     S
Ho3    O7      2.152   1_556 S
Ho3    O13     2.182   1_556 S
O5     C0      1.277   1_556 A
O5     Ho1     2.165   1_556 S
O6     C8      1.230   .     D
O7     C8      1.396   .     S
O7     Ho3     2.152   1_554 S
C8     C63     1.476   .     S
C9     O14     1.230   .     D
C9     O15     1.399   .     S
C9     C69     1.474   .     S
O10    C19     1.300   .     A
O11    C19     1.302   1_556 A
O13    C2      1.281   1_554 A
O13    Ho3     2.182   1_554 S
O15    Ho1     2.159   1_556 S
O16    C18     1.301   .     A
O17    C18     1.303   1_554 A
C18    O17     1.303   1_556 A
C18    C117    1.478   1_556 S
C19    O11     1.302   1_554 A
C19    C159    1.475   1_554 S
C20    O24     1.284   .     A
C20    C123    1.475   .     S
C20    O25     1.280   1_554 A
Ho21   O24     2.183   .     S
Ho21   O26     2.177   .     S
Ho21   O30     2.199   .     S
Ho21   O25     2.183   1_554 S
Ho21   O27     2.160   1_455 S
Ho21   O35     2.148   1_554 S
Ho21   O37     2.208   1_455 S
C22    O32     1.284   .     A
C22    C153    1.473   .     S
C22    O33     1.280   1_556 A
Ho23   O32     2.184   .     S
Ho23   O34     2.195   .     S
Ho23   O36     2.196   .     S
Ho23   O27     2.167   1_556 S
Ho23   O31     2.206   1_655 S
Ho23   O33     2.178   1_556 S
Ho23   O35     2.145   1_655 S
O25    C20     1.280   1_556 A
O25    Ho21    2.183   1_556 S
O26    C28     1.230   1_455 D
O27    C28     1.402   .     S
O27    Ho21    2.160   1_655 S
O27    Ho23    2.167   1_554 S
C28    O26     1.230   1_655 D
C28    C87     1.470   1_655 S
C29    O35     1.395   .     S
C29    O34     1.230   1_455 D
C29    C81     1.469   1_455 S
O30    C39     1.301   .     A
O31    Ho23    2.206   1_455 S
O31    C39     1.302   1_556 A
O33    C22     1.280   1_554 A
O33    Ho23    2.178   1_554 S
O34    C29     1.230   1_655 D
O35    Ho21    2.148   1_556 S
O35    Ho23    2.145   1_455 S
O36    C38     1.300   .     A
O37    Ho21    2.208   1_655 S
O37    C38     1.303   1_554 A
C38    O37     1.303   1_556 A
C38    C135    1.482   1_556 S
C39    O31     1.302   1_554 A
C39    C177    1.483   1_554 S
C40    O44     1.285   .     A
C40    O45     1.279   1_556 A
C40    C189    1.475   1_556 S
Ho41   O44     2.184   .     S
Ho41   O46     2.200   .     S
Ho41   O50     2.195   .     S
Ho41   O45     2.172   1_556 S
Ho41   O47     2.141   1_565 S
Ho41   O55     2.170   1_556 S
Ho41   O57     2.207   1_565 S
C42    O52     1.285   .     A
C42    O53     1.278   1_554 A
C42    C213    1.475   1_554 S
Ho43   O52     2.190   .     S
Ho43   O54     2.180   .     S
Ho43   O56     2.194   .     S
Ho43   O47     2.148   1_554 S
Ho43   O51     2.208   1_545 S
Ho43   O53     2.169   1_554 S
Ho43   O55     2.154   1_545 S
O45    C40     1.279   1_554 A
O45    Ho41    2.172   1_554 S
O46    C48     1.230   1_565 D
O47    C48     1.395   .     S
O47    Ho41    2.141   1_545 S
O47    Ho43    2.148   1_556 S
C48    C105    1.475   .     S
C48    O46     1.230   1_545 D
C49    O54     1.231   .     D
C49    C99     1.474   .     S
C49    O55     1.403   1_545 S
O50    C59     1.300   .     A
O51    Ho43    2.208   1_565 S
O51    C59     1.303   1_554 A
O53    C42     1.278   1_556 A
O53    Ho43    2.169   1_556 S
O55    Ho41    2.170   1_554 S
O55    Ho43    2.154   1_565 S
O55    C49     1.403   1_565 S
O56    C58     1.299   .     A
O57    Ho41    2.207   1_545 S
O57    C58     1.302   1_556 A
C58    O57     1.302   1_554 A
C58    C141    1.479   1_554 S
C59    O51     1.303   1_556 A
C59    C171    1.479   1_556 S
C60    C61     1.406   .     A
C60    N65     1.364   .     A
C60    C66     1.486   .     S
C61    C62     1.393   .     A
C61    H76     1.080   .     S
C62    C63     1.400   .     A
C62    H72     1.083   .     S
C63    C64     1.403   .     A
C64    N65     1.364   .     A
C64    H73     1.082   .     S
C66    N67     1.363   .     A
C66    C71     1.408   .     A
N67    C68     1.361   .     A
C68    C69     1.402   .     A
C68    H74     1.083   .     S
C69    C70     1.400   .     A
C70    C71     1.394   .     A
C70    H75     1.084   .     S
C71    H77     1.081   .     S
C78    C79     1.406   .     A
C78    C84     1.482   .     S
C78    N83     1.364   1_455 A
C79    C80     1.390   .     A
C79    H94     1.080   .     S
C80    H90     1.083   .     S
C80    C81     1.398   1_455 A
C81    C82     1.402   .     A
C81    C80     1.398   1_655 A
C81    C29     1.469   1_655 S
C82    N83     1.361   .     A
C82    H91     1.083   .     S
N83    C78     1.364   1_655 A
C84    C89     1.407   .     A
C84    N85     1.363   1_455 A
N85    C86     1.360   .     A
N85    C84     1.363   1_655 A
C86    H92     1.083   .     S
C86    C87     1.401   1_655 A
C87    C88     1.400   .     A
C87    C86     1.401   1_455 A
C87    C28     1.470   1_455 S
C88    C89     1.392   .     A
C88    H93     1.084   .     S
C89    H95     1.081   .     S
C96    C97     1.409   .     A
C96    N101    1.363   .     A
C96    C102    1.487   .     S
C97    C98     1.395   .     A
C97    H112    1.080   .     S
C98    C99     1.401   .     A
C98    H108    1.084   .     S
C99    C100    1.401   .     A
C100   N101    1.361   .     A
C100   H109    1.082   .     S
C102   N103    1.365   .     A
C102   C107    1.406   .     A
N103   C104    1.363   .     A
C104   C105    1.403   .     A
C104   H110    1.082   .     S
C105   C106    1.399   .     A
C106   C107    1.392   .     A
C106   H111    1.083   .     S
C107   H113    1.079   .     S
C114   N119    1.361   .     A
C114   C120    1.476   .     S
C114   C115    1.404   1_554 A
C115   C116    1.399   .     A
C115   H130    1.083   .     S
C115   C114    1.404   1_556 A
C116   H126    1.083   .     S
C116   C117    1.403   1_556 A
C117   C118    1.403   .     A
C117   C116    1.403   1_554 A
C117   C18     1.478   1_554 S
C118   N119    1.358   .     A
C118   H127    1.083   .     S
C120   N121    1.361   .     A
C120   C125    1.405   1_554 A
N121   C122    1.358   .     A
C122   C123    1.403   .     A
C122   H128    1.083   .     S
C123   C124    1.403   1_554 A
C124   C125    1.399   .     A
C124   H129    1.083   .     S
C124   C123    1.403   1_556 A
C125   H131    1.083   .     S
C125   C120    1.405   1_556 A
C132   N137    1.362   .     A
C132   C138    1.479   .     S
C132   C133    1.403   1_554 A
C133   C134    1.391   .     A
C133   H148    1.083   .     S
C133   C132    1.403   1_556 A
C134   H144    1.083   .     S
C134   C135    1.404   1_556 A
C135   C136    1.405   .     A
C135   C134    1.404   1_554 A
C135   C38     1.482   1_554 S
C136   N137    1.362   .     A
C136   H145    1.082   .     S
C138   N139    1.363   .     A
C138   C143    1.403   1_554 A
N139   C140    1.363   .     A
C140   H146    1.082   .     S
C140   C141    1.405   1_554 A
C141   C142    1.403   .     A
C141   C140    1.405   1_556 A
C141   C58     1.479   1_556 S
C142   C143    1.390   .     A
C142   H147    1.083   .     S
C143   H149    1.082   .     S
C143   C138    1.403   1_556 A
C150   N155    1.361   .     A
C150   C156    1.474   .     S
C150   C151    1.404   1_556 A
C151   C152    1.399   .     A
C151   H166    1.083   .     S
C151   C150    1.404   1_554 A
C152   H162    1.083   .     S
C152   C153    1.403   1_554 A
C153   C154    1.402   .     A
C153   C152    1.403   1_556 A
C154   N155    1.358   .     A
C154   H163    1.083   .     S
C156   N157    1.360   .     A
C156   C161    1.404   1_556 A
N157   C158    1.357   .     A
C158   C159    1.402   .     A
C158   H164    1.083   .     S
C159   C160    1.403   1_556 A
C159   C19     1.475   1_556 S
C160   C161    1.399   .     A
C160   H165    1.083   .     S
C160   C159    1.403   1_554 A
C161   H167    1.083   .     S
C161   C156    1.404   1_554 A
C168   C169    1.403   .     A
C168   C174    1.479   .     S
C168   N173    1.363   1_556 A
C169   C170    1.391   .     A
C169   H184    1.082   .     S
C170   H180    1.083   .     S
C170   C171    1.403   1_556 A
C171   C172    1.404   .     A
C171   C170    1.403   1_554 A
C171   C59     1.479   1_554 S
C172   N173    1.363   .     A
C172   H181    1.082   .     S
N173   C168    1.363   1_554 A
C174   N175    1.362   .     A
C174   C179    1.403   .     A
N175   C176    1.363   .     A
C176   C177    1.406   .     A
C176   H182    1.082   .     S
C177   C178    1.404   .     A
C177   C39     1.483   1_556 S
C178   C179    1.391   .     A
C178   H183    1.083   .     S
C179   H185    1.083   .     S
C186   C187    1.410   .     A
C186   N191    1.362   .     A
C186   C192    1.489   .     S
C187   C188    1.396   .     A
C187   H202    1.077   1_554 S
C188   C189    1.399   .     A
C188   H198    1.084   1_554 S
C189   C190    1.402   .     A
C189   C40     1.475   1_554 S
C190   N191    1.360   .     A
C190   H199    1.082   .     S
C192   N193    1.364   .     A
C192   C197    1.408   .     A
N193   C194    1.360   .     A
C194   C195    1.400   .     A
C194   H200    1.082   .     S
C195   C196    1.401   .     A
C195   C2      1.475   1_554 S
C196   C197    1.395   .     A
C196   H201    1.083   .     S
C197   H203    1.079   1_554 S
H198   C188    1.084   1_556 S
H202   C187    1.077   1_556 S
H203   C197    1.079   1_556 S
C204   C205    1.406   .     A
C204   C210    1.486   .     S
C204   N209    1.363   1_556 A
C205   C206    1.394   .     A
C205   H220    1.080   .     S
C206   C207    1.401   .     A
C206   H216    1.083   .     S
C207   C208    1.401   1_556 A
C207   C0      1.476   1_556 S
C208   N209    1.362   .     A
C208   H217    1.081   .     S
C208   C207    1.401   1_554 A
N209   C204    1.363   1_554 A
C210   C215    1.407   .     A
C210   N211    1.363   1_556 A
N211   C212    1.361   .     A
N211   C210    1.363   1_554 A
C212   H218    1.082   .     S
C212   C213    1.402   1_554 A
C213   C214    1.401   .     A
C213   C212    1.402   1_556 A
C213   C42     1.475   1_556 S
C214   C215    1.395   .     A
C214   H219    1.083   .     S
C215   H221    1.081   .     S
