data_kag+N144+E14
_audit_creation_date              2025-01-21
_audit_creation_method            'Materials Studio'
_symmetry_space_group_name_H-M    'P1'
_symmetry_Int_Tables_number       1
_symmetry_cell_setting            triclinic
loop_
_symmetry_equiv_pos_as_xyz
  x,y,z
_cell_length_a                    23.9880
_cell_length_b                    24.1751
_cell_length_c                    11.4048
_cell_angle_alpha                 84.5953
_cell_angle_beta                  101.2848
_cell_angle_gamma                 118.9055
loop_
_atom_site_label
_atom_site_type_symbol
_atom_site_fract_x
_atom_site_fract_y
_atom_site_fract_z
_atom_site_U_iso_or_equiv
_atom_site_adp_type
_atom_site_occupancy
C0     C     0.69419   0.62239   0.99105   0.00000  Uiso   1.00
Er1    Er    0.43987   0.52222  -0.01336   0.00000  Uiso   1.00
Er2    Er    0.54889   0.56074   0.02488   0.00000  Uiso   1.00
C3     C     0.51346   0.66592  -0.01309   0.00000  Uiso   1.00
O4     O     0.55066   0.56325   0.83538   0.00000  Uiso   1.00
C5     C     0.49781   0.54308   0.25459   0.00000  Uiso   1.00
C6     C     0.47217   0.41611   0.02129   0.00000  Uiso   1.00
C7     C     0.33133   0.49650   1.05419   0.00000  Uiso   1.00
O8     O     0.67665   0.64625   0.90271   0.00000  Uiso   1.00
O9     O     0.65431   0.59249   1.07617   0.00000  Uiso   1.00
O10    O     0.52945   0.46242   0.02962   0.00000  Uiso   1.00
O11    O     0.42416   0.42640   0.00935   0.00000  Uiso   1.00
O12    O     0.54921   0.55841   0.21533   0.00000  Uiso   1.00
O13    O     0.44505   0.52755   0.18062   0.00000  Uiso   1.00
C14    C     0.49803   0.54137   0.76136   0.00000  Uiso   1.00
O15    O     0.44485   0.51947   0.79918   0.00000  Uiso   1.00
O16    O     0.56283   0.65724   0.01658   0.00000  Uiso   1.00
O17    O     0.45741   0.61859  -0.03508   0.00000  Uiso   1.00
O18    O     0.33554   0.48988   0.94824   0.00000  Uiso   1.00
O19    O     0.38435   0.51217   1.12567   0.00000  Uiso   1.00
C20    C     0.85564   0.40055   0.98251   0.00000  Uiso   1.00
Er21   Er    0.05966   0.61428   0.09392   0.00000  Uiso   1.00
Er22   Er    0.98510   0.51140   0.08326   0.00000  Uiso   1.00
C23    C     0.11837   0.52572   0.12214   0.00000  Uiso   1.00
O24    O     0.98172   0.51558   0.89113   0.00000  Uiso   1.00
C25    C     1.02112   0.55768   0.33505   0.00000  Uiso   1.00
C26    C     0.92596   0.59969   0.05293   0.00000  Uiso   1.00
C27    C     0.14870   0.72204   1.01993   0.00000  Uiso   1.00
O28    O     0.85793   0.44321   0.91423   0.00000  Uiso   1.00
O29    O     0.90905   0.41054   1.07009   0.00000  Uiso   1.00
O30    O     0.91269   0.54211   0.06673   0.00000  Uiso   1.00
O31    O     0.98416   0.64238   0.05252   0.00000  Uiso   1.00
O32    O     0.98898   0.50679   0.27534   0.00000  Uiso   1.00
O33    O     0.05316   0.60888   0.28225   0.00000  Uiso   1.00
C34    C     0.02093   0.56411   0.84047   0.00000  Uiso   1.00
O35    O     0.06103   0.61351   0.90255   0.00000  Uiso   1.00
O36    O     0.05949   0.48362   0.10102   0.00000  Uiso   1.00
O37    O     0.13270   0.58324   0.13355   0.00000  Uiso   1.00
O38    O     0.11104   0.67512   0.95109   0.00000  Uiso   1.00
O39    O     0.13543   0.71158   1.12375   0.00000  Uiso   1.00
C40    C     0.41758   0.15853   0.97840   0.00000  Uiso   1.00
Er41   Er    0.52831   1.02174  -0.04870   0.00000  Uiso   1.00
Er42   Er    0.47656   0.07979  -0.08476   0.00000  Uiso   1.00
C43    C     0.37956   0.94413  -0.07337   0.00000  Uiso   1.00
O44    O     0.46476   0.06728   0.72438   0.00000  Uiso   1.00
C45    C     0.50802   0.05523   0.18076   0.00000  Uiso   1.00
C46    C     0.62025   0.16225  -0.05414   0.00000  Uiso   1.00
C47    C     0.52637   0.91152   0.96485   0.00000  Uiso   1.00
O48    O     0.39015   0.11705   1.04790   0.00000  Uiso   1.00
O49    O     0.43319   0.14396   0.87840   0.00000  Uiso   1.00
O50    O     0.56752   0.16175  -0.10001   0.00000  Uiso   1.00
O51    O     0.61929   0.11028  -0.02022   0.00000  Uiso   1.00
O52    O     0.49073   0.09011   0.10895   0.00000  Uiso   1.00
O53    O     0.52532   0.01974   0.14007   0.00000  Uiso   1.00
C54    C     0.49716   0.04605   0.68597   0.00000  Uiso   1.00
O55    O     0.52973   0.02514   0.76018   0.00000  Uiso   1.00
O56    O     0.38385  -0.00148  -0.07596   0.00000  Uiso   1.00
O57    O     0.43016   0.93852  -0.07323   0.00000  Uiso   1.00
O58    O     0.57749   0.96388   0.98115   0.00000  Uiso   1.00
O59    O     0.47594   0.91842   0.94241   0.00000  Uiso   1.00
C60    C     0.44033   0.52218   0.42737   0.00000  Uiso   1.00
C61    C     0.49829   0.54280   0.38439   0.00000  Uiso   1.00
C62    C     0.55643   0.56304   0.46649   0.00000  Uiso   1.00
C63    C     0.55640   0.56231   0.58921   0.00000  Uiso   1.00
C64    C     0.49835   0.54163   0.63196   0.00000  Uiso   1.00
C65    C     0.44030   0.52137   0.54978   0.00000  Uiso   1.00
H66    H     0.39463   0.50609   0.36662   0.00000  Uiso   1.00
H67    H     0.60193   0.57944   0.43602   0.00000  Uiso   1.00
H68    H     0.60196   0.57835   0.65046   0.00000  Uiso   1.00
H69    H     0.39483   0.50550   0.57989   0.00000  Uiso   1.00
C70    C     0.06305   0.61590   0.65318   0.00000  Uiso   1.00
C71    C     0.02039   0.56257   0.71088   0.00000  Uiso   1.00
C72    C     0.97834   0.50705   0.64417   0.00000  Uiso   1.00
C73    C     0.97882   0.50504   0.52226   0.00000  Uiso   1.00
C74    C     0.02133   0.55853   0.46463   0.00000  Uiso   1.00
C75    C     0.06326   0.61399   0.53134   0.00000  Uiso   1.00
H76    H     0.09615   0.65926   0.70204   0.00000  Uiso   1.00
H77    H     0.94482   0.46511   0.68613   0.00000  Uiso   1.00
H78    H     0.94563   0.46179   0.47295   0.00000  Uiso   1.00
H79    H     0.09682   0.65600   0.48960   0.00000  Uiso   1.00
C80    C     0.53258   0.02163   0.39066   0.00000  Uiso   1.00
C81    C     0.50642   0.05433   0.31028   0.00000  Uiso   1.00
C82    C     0.47611   0.08341   0.35424   0.00000  Uiso   1.00
C83    C     0.47190   0.07967   0.47578   0.00000  Uiso   1.00
C84    C     0.49862   0.04738   0.55628   0.00000  Uiso   1.00
C85    C     0.52906   0.01851   0.51224   0.00000  Uiso   1.00
H86    H     0.55599  -0.00154   0.35964   0.00000  Uiso   1.00
H87    H     0.45517   0.10863   0.29456   0.00000  Uiso   1.00
H88    H     0.44826   0.10256   0.50700   0.00000  Uiso   1.00
H89    H     0.55017  -0.00665   0.57178   0.00000  Uiso   1.00
C90    C     0.21211   0.45432   1.03040   0.00000  Uiso   1.00
C91    C     0.27467   0.49438   1.08882   0.00000  Uiso   1.00
C92    C     0.28422   0.53935   0.17057   0.00000  Uiso   1.00
C93    C     0.23245   0.54754   0.18650   0.00000  Uiso   1.00
C94    C     0.17013   0.50922   0.12459   0.00000  Uiso   1.00
C95    C     0.15990   0.46084   1.05013   0.00000  Uiso   1.00
H96    H     0.20401   0.41951   0.96685   0.00000  Uiso   1.00
H97    H     0.33238   0.57156   0.21465   0.00000  Uiso   1.00
H98    H     0.24168   0.58567   0.24283   0.00000  Uiso   1.00
H99    H     0.11228   0.43090   1.00096   0.00000  Uiso   1.00
C100   C     0.73830   0.33385   0.90453   0.00000  Uiso   1.00
C101   C     0.79618   0.33893   0.97223   0.00000  Uiso   1.00
C102   C     0.79626   0.28505   1.03035   0.00000  Uiso   1.00
C103   C     0.73938   0.22702   0.02051   0.00000  Uiso   1.00
C104   C     0.68136   0.22233  -0.04602   0.00000  Uiso   1.00
C105   C     0.68152   0.27634   0.89634   0.00000  Uiso   1.00
H106   H     0.73661   0.37463   0.85953   0.00000  Uiso   1.00
H107   H     0.84029   0.28773   0.08308   0.00000  Uiso   1.00
H108   H     0.74055   0.18614   0.06634   0.00000  Uiso   1.00
H109   H     0.63763   0.27433   0.84450   0.00000  Uiso   1.00
C110   C     0.85841   0.64839   0.94489   0.00000  Uiso   1.00
C111   C     0.87282   0.61488   0.04271   0.00000  Uiso   1.00
C112   C     0.83110   0.58852   0.12638   0.00000  Uiso   1.00
C113   C     0.77471   0.59354   0.11112   0.00000  Uiso   1.00
C114   C     0.75798   0.62415   1.01065   0.00000  Uiso   1.00
C115   C     0.80098   0.65266   0.92844   0.00000  Uiso   1.00
H116   H     0.88961   0.66813   0.87834   0.00000  Uiso   1.00
H117   H     0.84153   0.56263   0.20252   0.00000  Uiso   1.00
H118   H     0.74325   0.57144   0.17668   0.00000  Uiso   1.00
H119   H     0.78928   0.67631   0.84983   0.00000  Uiso   1.00
C120   C     0.27940   0.84366   0.85244   0.00000  Uiso   1.00
C121   C     0.31837   0.88850  -0.05666   0.00000  Uiso   1.00
C122   C     0.29953   0.87992   0.05521   0.00000  Uiso   1.00
C123   C     0.24325   0.82662   0.07759   0.00000  Uiso   1.00
C124   C     0.20433   0.78076   0.98832   0.00000  Uiso   1.00
C125   C     0.22227   0.79007   0.87468   0.00000  Uiso   1.00
H126   H     0.29334   0.85000   0.76527   0.00000  Uiso   1.00
H127   H     0.32947   0.91396   0.12644   0.00000  Uiso   1.00
H128   H     0.23138   0.82029   0.16670   0.00000  Uiso   1.00
H129   H     0.19298   0.75545   0.80439   0.00000  Uiso   1.00
C130   C     0.58177   0.84427   0.99791   0.00000  Uiso   1.00
C131   C     0.52468   0.84951   0.97025   0.00000  Uiso   1.00
C132   C     0.46504   0.79470   0.94594   0.00000  Uiso   1.00
C133   C     0.46216   0.73570   0.95014   0.00000  Uiso   1.00
C134   C     0.51892   0.72983  -0.02096   0.00000  Uiso   1.00
C135   C     0.57892   0.78478   0.00238   0.00000  Uiso   1.00
H136   H     0.62839   0.88598   1.01667   0.00000  Uiso   1.00
H137   H     0.42032   0.79736   0.92371   0.00000  Uiso   1.00
H138   H     0.41504   0.69448  -0.06876   0.00000  Uiso   1.00
H139   H     0.62337   0.78172   0.02482   0.00000  Uiso   1.00
C140   C     0.40523   0.30045   0.05695   0.00000  Uiso   1.00
C141   C     0.46087   0.35045   0.02054   0.00000  Uiso   1.00
C142   C     0.50320   0.33681   0.97496   0.00000  Uiso   1.00
C143   C     0.48888   0.27419   0.96171   0.00000  Uiso   1.00
C144   C     0.43290   0.22422   0.99684   0.00000  Uiso   1.00
C145   C     0.39187   0.23781   1.04699   0.00000  Uiso   1.00
H146   H     0.37173   0.30980   0.09195   0.00000  Uiso   1.00
H147   H     0.54619   0.37447   0.94569   0.00000  Uiso   1.00
H148   H     0.52168   0.26479   0.92422   0.00000  Uiso   1.00
H149   H     0.34846   0.19999   1.07464   0.00000  Uiso   1.00
loop_
_geom_bond_atom_site_label_1
_geom_bond_atom_site_label_2
_geom_bond_distance
_geom_bond_site_symmetry_2
_ccdc_geom_bond_type
C0     O8      1.218   .     D
C0     O9      1.394   .     S
C0     C114    1.483   .     S
Er1    O11     2.158   .     S
Er1    O13     2.204   .     S
Er1    O17     2.157   .     S
Er1    O15     2.173   1_554 S
Er1    O18     2.193   1_554 S
Er1    O19     2.188   1_554 S
Er2    O10     2.187   .     S
Er2    O12     2.166   .     S
Er2    O16     2.186   .     S
Er2    O4      2.164   1_554 S
Er2    O9      2.226   1_554 S
C3     O16     1.277   .     A
C3     O17     1.271   .     A
C3     C134    1.482   .     S
O4     C14     1.268   .     A
O4     Er2     2.164   1_556 S
C5     O12     1.265   .     A
C5     O13     1.279   .     A
C5     C61     1.477   .     S
C6     O10     1.278   .     A
C6     O11     1.271   .     A
C6     C141    1.476   .     S
C7     O18     1.263   .     A
C7     O19     1.270   .     A
C7     C91     1.464   .     S
O9     Er2     2.226   1_556 S
C14    O15     1.270   .     A
C14    C64     1.477   .     S
O15    Er1     2.173   1_556 S
O18    Er1     2.193   1_556 S
O19    Er1     2.188   1_556 S
C20    O28     1.218   .     D
C20    O29     1.394   .     S
C20    C101    1.477   .     S
Er21   O33     2.171   .     S
Er21   O37     2.176   .     S
Er21   O31     2.181   1_455 S
Er21   O35     2.191   1_554 S
Er21   O38     2.218   1_554 S
Er21   O39     2.174   1_554 S
Er22   O30     2.167   .     S
Er22   O32     2.169   .     S
Er22   O24     2.171   1_554 S
Er22   O29     2.227   1_554 S
Er22   O36     2.161   1_655 S
C23    O36     1.270   .     A
C23    O37     1.274   .     A
C23    C94     1.471   .     S
O24    Er22    2.171   1_556 S
O24    C34     1.270   1_655 A
C25    O32     1.268   .     A
C25    O33     1.267   1_655 A
C25    C74     1.479   1_655 S
C26    O30     1.270   .     A
C26    O31     1.274   .     A
C26    C111    1.470   .     S
C27    O38     1.272   .     A
C27    O39     1.257   .     A
C27    C124    1.479   .     S
O29    Er22    2.227   1_556 S
O31    Er21    2.181   1_655 S
O33    C25     1.267   1_455 A
C34    O35     1.279   .     A
C34    C71     1.479   .     S
C34    O24     1.270   1_455 A
O35    Er21    2.191   1_556 S
O36    Er22    2.161   1_455 S
O38    Er21    2.218   1_556 S
O39    Er21    2.174   1_556 S
C40    O48     1.218   .     D
C40    O49     1.391   .     S
C40    C144    1.473   .     S
Er41   O57     2.222   .     S
Er41   O51     2.188   1_565 S
Er41   O53     2.163   1_565 S
Er41   O55     2.180   1_564 S
Er41   O58     2.194   1_554 S
Er41   O59     2.189   1_554 S
Er42   O50     2.150   .     S
Er42   O52     2.188   .     S
Er42   O56     2.155   .     S
Er42   O44     2.170   1_554 S
Er42   O49     2.221   1_554 S
C43    O57     1.284   .     A
C43    C121    1.467   .     S
C43    O56     1.266   1_565 A
O44    C54     1.273   .     A
O44    Er42    2.170   1_556 S
C45    O52     1.276   .     A
C45    O53     1.272   .     A
C45    C81     1.483   .     S
C46    O50     1.265   .     A
C46    O51     1.270   .     A
C46    C104    1.477   .     S
C47    O58     1.263   .     A
C47    O59     1.274   .     A
C47    C131    1.476   .     S
O49    Er42    2.221   1_556 S
O51    Er41    2.188   1_545 S
O53    Er41    2.163   1_545 S
C54    O55     1.275   .     A
C54    C84     1.483   .     S
O55    Er41    2.180   1_546 S
O56    C43     1.266   1_545 A
O58    Er41    2.194   1_556 S
O59    Er41    2.189   1_556 S
C60    C61     1.405   .     A
C60    C65     1.395   .     A
C60    H66     1.084   .     S
C61    C62     1.406   .     A
C62    C63     1.398   .     A
C62    H67     1.083   .     S
C63    C64     1.405   .     A
C63    H68     1.084   .     S
C64    C65     1.405   .     A
C65    H69     1.083   .     S
C70    C71     1.404   .     A
C70    C75     1.396   .     A
C70    H76     1.083   .     S
C71    C72     1.407   1_455 A
C72    C73     1.398   .     A
C72    H77     1.084   .     S
C72    C71     1.407   1_655 A
C73    H78     1.084   .     S
C73    C74     1.404   1_655 A
C74    C75     1.406   .     A
C74    C73     1.404   1_455 A
C74    C25     1.479   1_455 S
C75    H79     1.084   .     S
C80    C81     1.406   .     A
C80    C85     1.398   .     A
C80    H86     1.083   .     S
C81    C82     1.406   .     A
C82    C83     1.401   .     A
C82    H87     1.082   .     S
C83    C84     1.407   .     A
C83    H88     1.084   .     S
C84    C85     1.405   .     A
C85    H89     1.083   .     S
C90    C91     1.400   .     A
C90    C95     1.397   .     A
C90    H96     1.083   .     S
C91    C92     1.404   1_556 A
C92    C93     1.395   .     A
C92    H97     1.082   .     S
C92    C91     1.404   1_554 A
C93    C94     1.401   .     A
C93    H98     1.082   .     S
C94    C95     1.406   1_554 A
C95    H99     1.081   .     S
C95    C94     1.406   1_556 A
C100   C101    1.404   .     A
C100   C105    1.393   .     A
C100   H106    1.083   .     S
C101   C102    1.405   .     A
C102   C103    1.401   1_556 A
C102   H107    1.083   1_556 S
C103   C104    1.406   .     A
C103   H108    1.084   .     S
C103   C102    1.401   1_554 A
C104   C105    1.404   1_554 A
C105   H109    1.083   .     S
C105   C104    1.404   1_556 A
H107   C102    1.083   1_554 S
C110   C115    1.406   .     A
C110   H116    1.083   .     S
C110   C111    1.403   1_556 A
C111   C112    1.400   .     A
C111   C110    1.403   1_554 A
C112   C113    1.392   .     A
C112   H117    1.083   .     S
C113   H118    1.082   .     S
C113   C114    1.403   1_554 A
C114   C115    1.410   .     A
C114   C113    1.403   1_556 A
C115   H119    1.082   .     S
C120   C125    1.407   .     A
C120   H126    1.084   .     S
C120   C121    1.406   1_556 A
C121   C122    1.400   .     A
C121   C120    1.406   1_554 A
C122   C123    1.393   .     A
C122   H127    1.086   .     S
C123   H128    1.086   .     S
C123   C124    1.406   1_554 A
C124   C125    1.409   .     A
C124   C123    1.406   1_556 A
C125   H129    1.084   .     S
C130   C131    1.408   .     A
C130   H136    1.082   .     S
C130   C135    1.403   1_556 A
C131   C132    1.400   .     A
C132   C133    1.391   .     A
C132   H137    1.085   .     S
C133   C134    1.409   1_556 A
C133   H138    1.083   1_556 S
C134   C135    1.406   .     A
C134   C133    1.409   1_554 A
C135   H139    1.083   .     S
C135   C130    1.403   1_554 A
H138   C133    1.083   1_554 S
C140   C141    1.406   .     A
C140   H146    1.084   .     S
C140   C145    1.399   1_554 A
C141   C142    1.405   1_554 A
C142   C143    1.397   .     A
C142   H147    1.083   .     S
C142   C141    1.405   1_556 A
C143   C144    1.405   .     A
C143   H148    1.085   .     S
C144   C145    1.404   .     A
C145   H149    1.083   .     S
C145   C140    1.399   1_556 A
