data_kag+N106+E28
_audit_creation_date              2025-01-21
_audit_creation_method            'Materials Studio'
_symmetry_space_group_name_H-M    'P1'
_symmetry_Int_Tables_number       1
_symmetry_cell_setting            triclinic
loop_
_symmetry_equiv_pos_as_xyz
  x,y,z
_cell_length_a                    42.2755
_cell_length_b                    42.9521
_cell_length_c                    18.8101
_cell_angle_alpha                 94.1457
_cell_angle_beta                  81.6833
_cell_angle_gamma                 124.8645
loop_
_atom_site_label
_atom_site_type_symbol
_atom_site_fract_x
_atom_site_fract_y
_atom_site_fract_z
_atom_site_U_iso_or_equiv
_atom_site_adp_type
_atom_site_occupancy
Y0     Y     0.52789   0.54792  -0.01793   0.00000  Uiso   1.00
Y1     Y     0.48348   0.46068   1.01705   0.00000  Uiso   1.00
O2     O     0.57685   0.54053  -0.04506   0.00000  Uiso   1.00
O3     O     0.51941   0.49753   0.91825   0.00000  Uiso   1.00
C4     C     0.45907   0.39164   1.06475   0.00000  Uiso   1.00
O5     O     0.46152   0.45031   0.90875   0.00000  Uiso   1.00
O6     O     0.55986   0.61142  -0.00856   0.00000  Uiso   1.00
O7     O     0.53303   0.58646   0.89862   0.00000  Uiso   1.00
O8     O     0.54776   0.48596   1.01691   0.00000  Uiso   1.00
O9     O     0.49227   0.51115   0.08112   0.00000  Uiso   1.00
O10    O     0.55019   0.55863   0.09002   0.00000  Uiso   1.00
O11    O     0.46359   0.52264  -0.01692   0.00000  Uiso   1.00
C12    C     0.57831   0.51551   0.98484   0.00000  Uiso   1.00
O13    O     0.43468   0.46828   1.04558   0.00000  Uiso   1.00
C14    C     0.48982   0.47758   0.87643   0.00000  Uiso   1.00
O15    O     0.45074   0.39710   1.00733   0.00000  Uiso   1.00
O16    O     0.47871   0.42181   0.09912   0.00000  Uiso   1.00
C17    C     0.55195   0.61665  -0.06674   0.00000  Uiso   1.00
C18    C     0.43316   0.49332   0.01593   0.00000  Uiso   1.00
C19    C     0.52207   0.53125   0.12247   0.00000  Uiso   1.00
Y20    Y     0.97814   0.51800  -0.00281   0.00000  Uiso   1.00
Y21    Y     0.03236   0.48923   1.00144   0.00000  Uiso   1.00
O22    O     0.03776   0.57304  -0.01738   0.00000  Uiso   1.00
O23    O     1.02423   0.51852   0.91780   0.00000  Uiso   1.00
C24    C     0.08711   0.47657   1.01298   0.00000  Uiso   1.00
O25    O     0.01679   0.46569   0.89082   0.00000  Uiso   1.00
O26    O     0.92468   0.51592   0.03960   0.00000  Uiso   1.00
O27    O     0.95148   0.54015   0.93706   0.00000  Uiso   1.00
O28    O     0.06893   0.55184   1.02724   0.00000  Uiso   1.00
O29    O    -0.01371   0.48868   0.08074   0.00000  Uiso   1.00
O30    O     0.99381   0.54149   0.10796   0.00000  Uiso   1.00
O31    O     0.94160   0.45533  -0.02914   0.00000  Uiso   1.00
C32    C     0.06755   0.57896   1.00728   0.00000  Uiso   1.00
O33    O     0.97275   0.43421   1.01598   0.00000  Uiso   1.00
C34    C     0.01443   0.49000   0.86882   0.00000  Uiso   1.00
O35    O     0.08561   0.49098   0.95881   0.00000  Uiso   1.00
O36    O     0.05960   0.46804   0.06241   0.00000  Uiso   1.00
C37    C     0.92372   0.53122  -0.01383   0.00000  Uiso   1.00
C38    C     0.94300   0.42824  -0.00894   0.00000  Uiso   1.00
C39    C    -0.00378   0.51719   0.12978   0.00000  Uiso   1.00
Y40    Y     0.48436   0.02487   1.02576   0.00000  Uiso   1.00
Y41    Y     0.52528   0.98299  -0.02490   0.00000  Uiso   1.00
O42    O     0.43508   0.96381   1.05036   0.00000  Uiso   1.00
O43    O     0.49222  -0.01524   0.07983   0.00000  Uiso   1.00
C44    C     0.54945   0.93896  -0.07963   0.00000  Uiso   1.00
O45    O     0.54973   1.00017   0.08170   0.00000  Uiso   1.00
O46    O     0.45045   0.05008   1.02286   0.00000  Uiso   1.00
O47    O     0.48071   0.06329   0.11143   0.00000  Uiso   1.00
O48    O     0.46055   0.93785  -0.02362   0.00000  Uiso   1.00
O49    O     0.51740   1.02309   0.92091   0.00000  Uiso   1.00
O50    O     0.45989   0.00772   0.91932   0.00000  Uiso   1.00
O51    O     0.54922   0.07000   1.02448   0.00000  Uiso   1.00
C52    C     0.43148   0.93560   0.01437   0.00000  Uiso   1.00
O53    O     0.57463   0.04392  -0.04937   0.00000  Uiso   1.00
C54    C     0.52267  -0.00182   0.11840   0.00000  Uiso   1.00
O55    O     0.55887   0.95741  -0.02248   0.00000  Uiso   1.00
O56    O     0.52839   0.94433   0.88929   0.00000  Uiso   1.00
C57    C     0.45958   0.06848   1.08008   0.00000  Uiso   1.00
C58    C     0.57830   0.07214   0.98663   0.00000  Uiso   1.00
C59    C     0.48690   0.00972   0.88243   0.00000  Uiso   1.00
C60    C     0.51312   0.51174   0.34761   0.00000  Uiso   1.00
C61    C     0.54898   0.53908   0.30894   0.00000  Uiso   1.00
C62    C     0.55194   0.54481   0.23551   0.00000  Uiso   1.00
C63    C     0.51921   0.52318   0.19887   0.00000  Uiso   1.00
C64    C     0.48354   0.49497   0.23658   0.00000  Uiso   1.00
C65    C     0.48049   0.48933   0.31035   0.00000  Uiso   1.00
C66    C     0.50979   0.50741   0.42644   0.00000  Uiso   1.00
N67    N     0.47508   0.48195   0.46482   0.00000  Uiso   1.00
N68    N     0.47203   0.47868   0.53574   0.00000  Uiso   1.00
C69    C     0.50351   0.50078   0.57156   0.00000  Uiso   1.00
N70    N     0.53824   0.52625   0.53319   0.00000  Uiso   1.00
N71    N     0.54130   0.52951   0.46224   0.00000  Uiso   1.00
C72    C     0.49998   0.49648   0.65046   0.00000  Uiso   1.00
C73    C     0.53238   0.51903   0.68823   0.00000  Uiso   1.00
C74    C     0.52893   0.51359   0.76225   0.00000  Uiso   1.00
C75    C     0.49311   0.48547   0.79969   0.00000  Uiso   1.00
C76    C     0.46064   0.46362   0.76243   0.00000  Uiso   1.00
C77    C     0.46399   0.46914   0.68879   0.00000  Uiso   1.00
H78    H     0.57475   0.55662   0.33559   0.00000  Uiso   1.00
H79    H     0.57978   0.56661   0.20751   0.00000  Uiso   1.00
H80    H     0.45782   0.47790   0.20950   0.00000  Uiso   1.00
H81    H     0.45245   0.46784   0.33832   0.00000  Uiso   1.00
H82    H     0.56053   0.54046   0.66051   0.00000  Uiso   1.00
H83    H     0.55444   0.53078   0.78981   0.00000  Uiso   1.00
H84    H     0.43268   0.44181   0.79009   0.00000  Uiso   1.00
H85    H     0.43841   0.45141   0.66168   0.00000  Uiso   1.00
C86    C     0.00224   0.49587   0.64909   0.00000  Uiso   1.00
C87    C     0.99500   0.46261   0.67719   0.00000  Uiso   1.00
C88    C     0.99737   0.46014   0.74954   0.00000  Uiso   1.00
C89    C     0.00676   0.49073   0.79539   0.00000  Uiso   1.00
C90    C     0.01193   0.52318   0.76863   0.00000  Uiso   1.00
C91    C     0.00972   0.52577   0.69605   0.00000  Uiso   1.00
C92    C     0.00394   0.49994   0.57082   0.00000  Uiso   1.00
N93    N     0.01211   0.53239   0.54276   0.00000  Uiso   1.00
N94    N     0.01470   0.53639   0.47220   0.00000  Uiso   1.00
C95    C     0.00948   0.50824   0.42657   0.00000  Uiso   1.00
N96    N     1.00141   0.47583   0.45461   0.00000  Uiso   1.00
N97    N     0.99882   0.47182   0.52519   0.00000  Uiso   1.00
C98    C     0.01064   0.51216   0.34845   0.00000  Uiso   1.00
C99    C     1.00343   0.48239   0.30131   0.00000  Uiso   1.00
C100   C     1.00041   0.48468   0.22906   0.00000  Uiso   1.00
C101   C     0.00449   0.51668   0.20284   0.00000  Uiso   1.00
C102   C     0.01360   0.54717   0.24882   0.00000  Uiso   1.00
C103   C     0.01676   0.54499   0.32082   0.00000  Uiso   1.00
H104   H     0.98854   0.43879   0.64295   0.00000  Uiso   1.00
H105   H     0.99301   0.43469   0.76912   0.00000  Uiso   1.00
H106   H     0.01906   0.54708   0.80316   0.00000  Uiso   1.00
H107   H     0.01496   0.55162   0.67643   0.00000  Uiso   1.00
H108   H     0.99904   0.45687   0.32053   0.00000  Uiso   1.00
H109   H     0.99357   0.46091   0.19436   0.00000  Uiso   1.00
H110   H     0.01715   0.57231   0.22969   0.00000  Uiso   1.00
H111   H     0.02291   0.56867   0.35522   0.00000  Uiso   1.00
C112   C     0.51351   0.00696   0.34789   0.00000  Uiso   1.00
C113   C     0.48504   1.00337   0.31052   0.00000  Uiso   1.00
C114   C     0.48871   1.00192   0.23539   0.00000  Uiso   1.00
C115   C     0.52098   0.00436   0.19647   0.00000  Uiso   1.00
C116   C     0.55032   0.00989   0.23343   0.00000  Uiso   1.00
C117   C     0.54658   0.01108   0.30831   0.00000  Uiso   1.00
C118   C     0.50835   0.00503   0.42746   0.00000  Uiso   1.00
N119   N     0.53443   0.00529   0.46262   0.00000  Uiso   1.00
N120   N     0.52972   0.00298   0.53400   0.00000  Uiso   1.00
C121   C     0.49861   0.00013   0.57343   0.00000  Uiso   1.00
N122   N     0.47240   0.99967   0.53828   0.00000  Uiso   1.00
N123   N     0.47711   1.00198   0.46686   0.00000  Uiso   1.00
C124   C     0.49416  -0.00082   0.65303   0.00000  Uiso   1.00
C125   C     0.46159   0.99580   0.69324   0.00000  Uiso   1.00
C126   C     0.45866   0.99787   0.76804   0.00000  Uiso   1.00
C127   C     0.48829   0.00352   0.80432   0.00000  Uiso   1.00
C128   C     0.52027   0.00567   0.76473   0.00000  Uiso   1.00
C129   C     0.52312   0.00335   0.68973   0.00000  Uiso   1.00
H130   H     0.45949   1.00074   0.33924   0.00000  Uiso   1.00
H131   H     0.46590   0.99802   0.20783   0.00000  Uiso   1.00
H132   H     0.57558   0.01197   0.20456   0.00000  Uiso   1.00
H133   H     0.56929   0.01439   0.33518   0.00000  Uiso   1.00
H134   H     0.43867   0.99238   0.66690   0.00000  Uiso   1.00
H135   H     0.43377   0.99631   0.79734   0.00000  Uiso   1.00
H136   H     0.54345   0.00997   0.79160   0.00000  Uiso   1.00
H137   H     0.54847   0.00574   0.66048   0.00000  Uiso   1.00
C138   C     0.32354   0.47926   1.02237   0.00000  Uiso   1.00
C139   C     0.32827   0.45986   0.07238   0.00000  Uiso   1.00
C140   C     0.36398   0.46450   0.07092   0.00000  Uiso   1.00
C141   C     0.39561   0.48888   1.01993   0.00000  Uiso   1.00
C142   C     0.39109   0.50901   0.97150   0.00000  Uiso   1.00
C143   C     0.35548   0.50404   0.97232   0.00000  Uiso   1.00
C144   C     0.28597   0.47448   1.02176   0.00000  Uiso   1.00
N145   N     0.28100   0.48940   0.96672   0.00000  Uiso   1.00
N146   N     0.24809   0.48662   0.96607   0.00000  Uiso   1.00
C147   C     0.21859   0.46883   1.02046   0.00000  Uiso   1.00
N148   N     0.22324   0.45346   0.07546   0.00000  Uiso   1.00
N149   N     0.25629   0.45616   0.07601   0.00000  Uiso   1.00
C150   C     0.18291   0.46764   1.01945   0.00000  Uiso   1.00
C151   C     0.15587   0.45859   0.08127   0.00000  Uiso   1.00
C152   C     0.12396   0.46065   0.07974   0.00000  Uiso   1.00
C153   C     0.11866   0.47158   1.01630   0.00000  Uiso   1.00
C154   C     0.14518   0.47963   0.95443   0.00000  Uiso   1.00
C155   C     0.17675   0.47761   0.95591   0.00000  Uiso   1.00
H156   H     0.30434   0.44087   0.11209   0.00000  Uiso   1.00
H157   H     0.36690   0.44919   0.10986   0.00000  Uiso   1.00
H158   H     0.41498   0.52826   0.93200   0.00000  Uiso   1.00
H159   H     0.35309   0.51974   0.93339   0.00000  Uiso   1.00
H160   H     0.15995   0.45100   0.13115   0.00000  Uiso   1.00
H161   H     0.10402   0.45453   0.12825   0.00000  Uiso   1.00
H162   H     0.14189   0.48808   0.90460   0.00000  Uiso   1.00
H163   H     0.19673   0.48446   0.90713   0.00000  Uiso   1.00
C164   C     0.83962   0.31582  -0.01919   0.00000  Uiso   1.00
C165   C     0.85212   0.34281   0.92677   0.00000  Uiso   1.00
C166   C     0.88601   0.37923   0.92975   0.00000  Uiso   1.00
C167   C     0.90866   0.38903  -0.01422   0.00000  Uiso   1.00
C168   C     0.89700   0.36171   0.03849   0.00000  Uiso   1.00
C169   C     0.86248   0.32555   0.03657   0.00000  Uiso   1.00
C170   C     0.80213   0.27837  -0.01957   0.00000  Uiso   1.00
N171   N     0.78131   0.25934   0.04298   0.00000  Uiso   1.00
N172   N     0.74641   0.22675   0.04321   0.00000  Uiso   1.00
C173   C     0.73106   0.21172  -0.01915   0.00000  Uiso   1.00
N174   N     0.75210   0.23045   0.91819   0.00000  Uiso   1.00
N175   N     0.78684   0.26324   0.91802   0.00000  Uiso   1.00
C176   C     0.69182   0.17624  -0.01851   0.00000  Uiso   1.00
C177   C     0.68194   0.15200   0.92215   0.00000  Uiso   1.00
C178   C     0.64500   0.11804   0.92378   0.00000  Uiso   1.00
C179   C     0.61699   0.10829  -0.01607   0.00000  Uiso   1.00
C180   C     0.62655   0.13297   0.04248   0.00000  Uiso   1.00
C181   C     0.66376   0.16640   0.04161   0.00000  Uiso   1.00
H182   H     0.83495   0.33617   0.88351   0.00000  Uiso   1.00
H183   H     0.89441   0.39986   0.88842   0.00000  Uiso   1.00
H184   H     0.91384   0.36883   0.08256   0.00000  Uiso   1.00
H185   H     0.85352   0.30532   0.07895   0.00000  Uiso   1.00
H186   H     0.70298   0.15897   0.87503   0.00000  Uiso   1.00
H187   H     0.63817   0.09956   0.87778   0.00000  Uiso   1.00
H188   H     0.60544   0.12604   0.08952   0.00000  Uiso   1.00
H189   H     0.67046   0.18480   0.08769   0.00000  Uiso   1.00
C190   C     0.82866   0.54154  -0.01858   0.00000  Uiso   1.00
C191   C     0.85499   0.54957   0.91884   0.00000  Uiso   1.00
C192   C     0.88679   0.54727   0.91985   0.00000  Uiso   1.00
C193   C     0.89257   0.53688  -0.01660   0.00000  Uiso   1.00
C194   C     0.86678   0.52984   0.04594   0.00000  Uiso   1.00
C195   C     0.83536   0.53218   0.04503   0.00000  Uiso   1.00
C196   C     0.79315   0.54077  -0.01876   0.00000  Uiso   1.00
N197   N     0.76458   0.52487   0.03767   0.00000  Uiso   1.00
N198   N     0.73179   0.52236   0.03775   0.00000  Uiso   1.00
C199   C     0.72597   0.53573  -0.01865   0.00000  Uiso   1.00
N200   N     0.75475   0.55226   0.92512   0.00000  Uiso   1.00
N201   N     0.78765   0.55466   0.92493   0.00000  Uiso   1.00
C202   C     0.68838   0.53085  -0.01901   0.00000  Uiso   1.00
C203   C     0.68384   0.55075   0.93182   0.00000  Uiso   1.00
C204   C     0.64800   0.54571   0.93260   0.00000  Uiso   1.00
C205   C     0.61600   0.52037  -0.01801   0.00000  Uiso   1.00
C206   C     0.62038   0.49991   0.02992   0.00000  Uiso   1.00
C207   C     0.65619   0.50537   0.02991   0.00000  Uiso   1.00
H208   H     0.85046   0.55662   0.86884   0.00000  Uiso   1.00
H209   H     0.90617   0.55262   0.87084   0.00000  Uiso   1.00
H210   H     0.87050   0.52193   0.09589   0.00000  Uiso   1.00
H211   H     0.81591   0.52604   0.09434   0.00000  Uiso   1.00
H212   H     0.70802   0.57045   0.89329   0.00000  Uiso   1.00
H213   H     0.64528   0.56148   0.89437   0.00000  Uiso   1.00
H214   H     0.59622   0.47997   0.06827   0.00000  Uiso   1.00
H215   H     0.65853   0.48935   0.06820   0.00000  Uiso   1.00
C216   C     0.31849   0.83101   1.01911   0.00000  Uiso   1.00
C217   C     0.34617   0.84177   0.95807   0.00000  Uiso   1.00
C218   C     0.38322   0.87536   0.95739   0.00000  Uiso   1.00
C219   C     0.39296   0.89930   1.01706   0.00000  Uiso   1.00
C220   C     0.36541   0.88854   0.07830   0.00000  Uiso   1.00
C221   C     0.32862   0.85439   0.07968   0.00000  Uiso   1.00
C222   C     0.27937   0.79542   1.01934   0.00000  Uiso   1.00
N223   N     0.25880   0.77586   0.08152   0.00000  Uiso   1.00
N224   N     0.22415   0.74299   0.08119   0.00000  Uiso   1.00
C225   C     0.20853   0.72866   1.01884   0.00000  Uiso   1.00
N226   N     0.22887   0.74850   0.95680   0.00000  Uiso   1.00
N227   N     0.26369   0.78117   0.95703   0.00000  Uiso   1.00
C228   C     0.17116   0.69119   1.01793   0.00000  Uiso   1.00
C229   C     0.14732   0.68229   0.96434   0.00000  Uiso   1.00
C230   C     0.11273   0.64616   0.96227   0.00000  Uiso   1.00
C231   C     0.10201   0.61811   0.01263   0.00000  Uiso   1.00
C232   C     0.12575   0.62714   0.06640   0.00000  Uiso   1.00
C233   C     0.15970   0.66345   0.06958   0.00000  Uiso   1.00
H234   H     0.33928   0.82401   0.91104   0.00000  Uiso   1.00
H235   H     0.40403   0.88302   0.90961   0.00000  Uiso   1.00
H236   H     0.37250   0.90636   0.12526   0.00000  Uiso   1.00
H237   H     0.30787   0.84664   0.12758   0.00000  Uiso   1.00
H238   H     0.15551   0.70319   0.92386   0.00000  Uiso   1.00
H239   H     0.09507   0.63972   0.91994   0.00000  Uiso   1.00
H240   H     0.11816   0.60600   0.10585   0.00000  Uiso   1.00
H241   H     0.17770   0.66945   0.11103   0.00000  Uiso   1.00
C242   C     0.57324   0.85478  -0.13017   0.00000  Uiso   1.00
C243   C     0.59423   0.88428  -0.08258   0.00000  Uiso   1.00
C244   C     0.58768   0.91260  -0.06927   0.00000  Uiso   1.00
C245   C     0.56033   0.91246  -0.10370   0.00000  Uiso   1.00
C246   C     0.54094   0.88444   0.84531   0.00000  Uiso   1.00
C247   C     0.54724   0.85569   0.83237   0.00000  Uiso   1.00
C248   C     0.57619   0.82186  -0.13489   0.00000  Uiso   1.00
N249   N     0.55245   0.79048   0.82743   0.00000  Uiso   1.00
N250   N     0.55237   0.75949   0.83017   0.00000  Uiso   1.00
C251   C     0.57597   0.75857  -0.12921   0.00000  Uiso   1.00
N252   N     0.60024   0.79022  -0.09292   0.00000  Uiso   1.00
N253   N     0.60035   0.82113  -0.09570   0.00000  Uiso   1.00
C254   C     0.57321   0.72308  -0.11970   0.00000  Uiso   1.00
C255   C     0.59318   0.72109  -0.06841   0.00000  Uiso   1.00
C256   C     0.58742   0.68673  -0.05327   0.00000  Uiso   1.00
C257   C     0.56186   0.65368  -0.08945   0.00000  Uiso   1.00
C258   C     0.54326   0.65583   0.85692   0.00000  Uiso   1.00
C259   C     0.54866   0.69017   0.84228   0.00000  Uiso   1.00
H260   H     0.61452   0.88466  -0.05280   0.00000  Uiso   1.00
H261   H     0.60303   0.93389  -0.02976   0.00000  Uiso   1.00
H262   H     0.51959   0.88367   0.81815   0.00000  Uiso   1.00
H263   H     0.53066   0.83344   0.79523   0.00000  Uiso   1.00
H264   H     0.61237   0.74582  -0.03813   0.00000  Uiso   1.00
H265   H     0.60218   0.68580  -0.01181   0.00000  Uiso   1.00
H266   H     0.52322   0.63062   0.82853   0.00000  Uiso   1.00
H267   H     0.53285   0.69066   0.80248   0.00000  Uiso   1.00
C268   C     0.43545   0.28417   1.11818   0.00000  Uiso   1.00
C269   C     0.46010   0.31688   0.15659   0.00000  Uiso   1.00
C270   C     0.46648   0.35159   0.14138   0.00000  Uiso   1.00
C271   C     0.44861   0.35433   1.08710   0.00000  Uiso   1.00
C272   C     0.42293   0.32150   1.05046   0.00000  Uiso   1.00
C273   C     0.41629   0.28676   1.06601   0.00000  Uiso   1.00
C274   C     0.43216   0.24841   1.12794   0.00000  Uiso   1.00
N275   N     0.40858   0.21711   1.09008   0.00000  Uiso   1.00
N276   N     0.40845   0.18617   1.09278   0.00000  Uiso   1.00
C277   C     0.43190   0.18508   1.13338   0.00000  Uiso   1.00
N278   N     0.45485   0.21606   0.17265   0.00000  Uiso   1.00
N279   N     0.45496   0.24706   0.16999   0.00000  Uiso   1.00
C280   C     0.43503   0.15226   1.12887   0.00000  Uiso   1.00
C281   C     0.46081   0.15143   0.16720   0.00000  Uiso   1.00
C282   C     0.46730   0.12279   0.15491   0.00000  Uiso   1.00
C283   C     0.44832   0.09475   1.10374   0.00000  Uiso   1.00
C284   C     0.42112   0.09449   1.06845   0.00000  Uiso   1.00
C285   C     0.41442   0.12275   1.08104   0.00000  Uiso   1.00
H286   H     0.47530   0.31595   0.19712   0.00000  Uiso   1.00
H287   H     0.48662   0.37661   0.17002   0.00000  Uiso   1.00
H288   H     0.40875   0.32287   1.00839   0.00000  Uiso   1.00
H289   H     0.39705   0.26220   1.03540   0.00000  Uiso   1.00
H290   H     0.47717   0.17373   0.20444   0.00000  Uiso   1.00
H291   H     0.48850   0.12366   0.18270   0.00000  Uiso   1.00
H292   H     0.40603   0.07315   1.02881   0.00000  Uiso   1.00
H293   H     0.39435   0.12233   1.05054   0.00000  Uiso   1.00
loop_
_geom_bond_atom_site_label_1
_geom_bond_atom_site_label_2
_geom_bond_distance
_geom_bond_site_symmetry_2
_ccdc_geom_bond_type
Y0     O2      2.251   .     S
Y0     O6      2.254   .     S
Y0     O9      2.264   .     S
Y0     O10     2.269   .     S
Y0     O11     2.276   .     S
Y0     O3      2.262   1_554 S
Y0     O7      2.262   1_554 S
Y1     O3      2.264   .     S
Y1     O5      2.270   .     S
Y1     O8      2.278   .     S
Y1     O13     2.253   .     S
Y1     O15     2.255   .     S
Y1     O9      2.263   1_556 S
Y1     O16     2.260   1_556 S
O2     C12     1.284   1_554 A
O3     C14     1.371   .     S
O3     Y0      2.262   1_556 S
C4     O15     1.260   .     A
C4     C271    1.474   .     S
C4     O16     1.261   1_556 A
O5     C14     1.210   .     D
O6     C17     1.260   .     A
O7     Y0      2.262   1_556 S
O7     C17     1.261   1_556 A
O8     C12     1.286   .     A
O9     C19     1.371   .     S
O9     Y1      2.263   1_554 S
O10    C19     1.210   .     D
O11    C18     1.286   .     A
C12    O2      1.284   1_556 A
C12    C205    1.477   1_556 S
O13    C18     1.284   1_556 A
C14    C75     1.475   .     S
O16    Y1      2.260   1_554 S
O16    C4      1.261   1_554 A
C17    C257    1.474   .     S
C17    O7      1.261   1_554 A
C18    O13     1.284   1_554 A
C18    C141    1.478   1_554 S
C19    C63     1.474   .     S
Y20    O26     2.238   .     S
Y20    O30     2.265   .     S
Y20    O31     2.270   .     S
Y20    O22     2.258   1_655 S
Y20    O23     2.267   1_554 S
Y20    O27     2.281   1_554 S
Y20    O29     2.261   1_655 S
Y21    O25     2.262   .     S
Y21    O28     2.266   .     S
Y21    O35     2.238   .     S
Y21    O23     2.261   1_455 S
Y21    O29     2.265   1_556 S
Y21    O33     2.258   1_455 S
Y21    O36     2.280   1_556 S
O22    Y20     2.258   1_455 S
O22    C32     1.285   1_554 A
O23    Y20     2.267   1_556 S
O23    Y21     2.261   1_655 S
O23    C34     1.374   1_655 S
C24    O35     1.257   .     A
C24    C153    1.477   .     S
C24    O36     1.265   1_556 A
O25    C34     1.210   .     D
O26    C37     1.257   .     A
O27    Y20     2.281   1_556 S
O27    C37     1.265   1_556 A
O28    C32     1.284   .     A
O29    C39     1.374   .     S
O29    Y20     2.261   1_455 S
O29    Y21     2.265   1_554 S
O30    C39     1.210   1_655 D
O31    C38     1.285   .     A
C32    O22     1.285   1_556 A
C32    C231    1.476   1_556 S
O33    Y21     2.258   1_655 S
O33    C38     1.286   1_556 A
C34    C89     1.470   .     S
C34    O23     1.374   1_455 S
O36    Y21     2.280   1_554 S
O36    C24     1.265   1_554 A
C37    C193    1.478   .     S
C37    O27     1.265   1_554 A
C38    C167    1.475   .     S
C38    O33     1.286   1_554 A
C39    C101    1.471   .     S
C39    O30     1.210   1_455 D
Y40    O46     2.245   .     S
Y40    O50     2.266   .     S
Y40    O51     2.278   .     S
Y40    O42     2.254   1_545 S
Y40    O43     2.262   1_556 S
Y40    O47     2.276   1_556 S
Y40    O49     2.269   1_545 S
Y41    O45     2.269   .     S
Y41    O48     2.274   .     S
Y41    O55     2.244   .     S
Y41    O43     2.268   1_565 S
Y41    O49     2.264   1_554 S
Y41    O53     2.251   1_565 S
Y41    O56     2.276   1_554 S
O42    Y40     2.254   1_565 S
O42    C52     1.285   1_556 A
O43    C54     1.370   .     S
O43    Y40     2.262   1_554 S
O43    Y41     2.268   1_545 S
C44    O55     1.258   .     A
C44    C245    1.475   .     S
C44    O56     1.262   1_554 A
O45    C54     1.208   1_565 D
O46    C57     1.257   .     A
O47    Y40     2.276   1_554 S
O47    C57     1.263   1_554 A
O48    C52     1.285   .     A
O49    Y40     2.269   1_565 S
O49    Y41     2.264   1_556 S
O49    C59     1.371   1_565 S
O50    C59     1.208   .     D
O51    C58     1.286   .     A
C52    O42     1.285   1_554 A
C52    C219    1.473   1_554 S
O53    Y41     2.251   1_545 S
O53    C58     1.284   1_554 A
C54    C115    1.472   .     S
C54    O45     1.208   1_545 D
O56    Y41     2.276   1_556 S
O56    C44     1.262   1_556 A
C57    C283    1.476   .     S
C57    O47     1.263   1_556 A
C58    O53     1.284   1_556 A
C58    C179    1.474   1_556 S
C59    C127    1.473   .     S
C59    O49     1.371   1_545 S
C60    C61     1.406   .     A
C60    C65     1.409   .     A
C60    C66     1.484   .     S
C61    C62     1.396   .     A
C61    H78     1.082   .     S
C62    C63     1.402   .     A
C62    H79     1.082   .     S
C63    C64     1.404   .     A
C64    C65     1.401   .     A
C64    H80     1.084   .     S
C65    H81     1.083   .     S
C66    N67     1.358   .     A
C66    N71     1.360   .     A
N67    N68     1.331   .     A
N68    C69     1.360   .     A
C69    N70     1.358   .     A
C69    C72     1.484   .     S
N70    N71     1.332   .     A
C72    C73     1.409   .     A
C72    C77     1.406   .     A
C73    C74     1.401   .     A
C73    H82     1.083   .     S
C74    C75     1.404   .     A
C74    H83     1.083   .     S
C75    C76     1.402   .     A
C76    C77     1.396   .     A
C76    H84     1.083   .     S
C77    H85     1.082   .     S
C86    C91     1.408   .     A
C86    C92     1.482   .     S
C86    C87     1.406   1_455 A
C87    C88     1.395   .     A
C87    H104    1.083   .     S
C87    C86     1.406   1_655 A
C88    H105    1.083   .     S
C88    C89     1.403   1_655 A
C89    C90     1.402   .     A
C89    C88     1.403   1_455 A
C90    C91     1.399   .     A
C90    H106    1.083   .     S
C91    H107    1.083   .     S
C92    N93     1.358   .     A
C92    N97     1.359   1_455 A
N93    N94     1.331   .     A
N94    C95     1.359   .     A
C95    C98     1.482   .     S
C95    N96     1.358   1_455 A
N96    N97     1.332   .     A
N96    C95     1.358   1_655 A
N97    C92     1.359   1_655 A
C98    C103    1.406   .     A
C98    C99     1.408   1_455 A
C99    C100    1.399   .     A
C99    H108    1.083   .     S
C99    C98     1.408   1_655 A
C100   H109    1.083   .     S
C100   C101    1.402   1_655 A
C101   C102    1.403   .     A
C101   C100    1.402   1_455 A
C102   C103    1.395   .     A
C102   H110    1.083   .     S
C103   H111    1.083   .     S
C112   C117    1.405   .     A
C112   C118    1.482   .     S
C112   C113    1.408   1_545 A
C113   C114    1.400   .     A
C113   H130    1.083   .     S
C113   C112    1.408   1_565 A
C114   H131    1.083   .     S
C114   C115    1.403   1_565 A
C115   C116    1.402   .     A
C115   C114    1.403   1_545 A
C116   C117    1.395   .     A
C116   H132    1.083   .     S
C117   H133    1.082   .     S
C118   N119    1.360   .     A
C118   N123    1.358   1_545 A
N119   N120    1.331   .     A
N120   C121    1.357   .     A
C121   C124    1.482   .     S
C121   N122    1.360   1_545 A
N122   N123    1.332   .     A
N122   C121    1.360   1_565 A
N123   C118    1.358   1_565 A
C124   C129    1.409   .     A
C124   C125    1.405   1_545 A
C125   C126    1.395   .     A
C125   H134    1.082   .     S
C125   C124    1.405   1_565 A
C126   H135    1.083   .     S
C126   C127    1.403   1_565 A
C127   C128    1.402   .     A
C127   C126    1.403   1_545 A
C128   C129    1.400   .     A
C128   H136    1.083   .     S
C129   H137    1.083   .     S
C138   C143    1.406   .     A
C138   C144    1.482   .     S
C138   C139    1.406   1_556 A
C139   C140    1.402   .     A
C139   H156    1.083   .     S
C139   C138    1.406   1_554 A
C140   H157    1.083   .     S
C140   C141    1.406   1_554 A
C141   C142    1.402   .     A
C141   C140    1.406   1_556 A
C141   C18     1.478   1_556 S
C142   C143    1.392   .     A
C142   H158    1.083   .     S
C143   H159    1.083   .     S
C144   N145    1.356   .     A
C144   N149    1.361   1_556 A
N145   N146    1.328   .     A
N146   C147    1.357   .     A
C147   C150    1.482   .     S
C147   N148    1.361   1_556 A
N148   N149    1.336   .     A
N148   C147    1.361   1_554 A
N149   C144    1.361   1_554 A
C150   C155    1.404   .     A
C150   C151    1.408   1_556 A
C151   C152    1.406   .     A
C151   H160    1.082   .     S
C151   C150    1.408   1_554 A
C152   H161    1.082   .     S
C152   C153    1.405   1_554 A
C153   C154    1.403   .     A
C153   C152    1.405   1_556 A
C154   C155    1.390   .     A
C154   H162    1.083   .     S
C155   H163    1.083   .     S
C164   C169    1.406   .     A
C164   C170    1.479   .     S
C164   C165    1.404   1_554 A
C165   C166    1.397   .     A
C165   H182    1.082   .     S
C165   C164    1.404   1_556 A
C166   H183    1.084   .     S
C166   C167    1.404   1_556 A
C167   C168    1.403   .     A
C167   C166    1.404   1_554 A
C168   C169    1.400   .     A
C168   H184    1.083   .     S
C169   H185    1.082   .     S
C170   N171    1.358   .     A
C170   N175    1.359   1_554 A
N171   N172    1.332   .     A
N172   C173    1.359   .     A
C173   C176    1.477   .     S
C173   N174    1.358   1_554 A
N174   N175    1.332   .     A
N174   C173    1.358   1_556 A
N175   C170    1.359   1_556 A
C176   C181    1.404   .     A
C176   C177    1.405   1_554 A
C177   C178    1.399   .     A
C177   H186    1.083   .     S
C177   C176    1.405   1_556 A
C178   H187    1.083   .     S
C178   C179    1.404   1_556 A
C179   C180    1.403   .     A
C179   C178    1.404   1_554 A
C179   C58     1.474   1_554 S
C180   C181    1.397   .     A
C180   H188    1.083   .     S
C181   H189    1.082   .     S
C190   C195    1.404   .     A
C190   C196    1.483   .     S
C190   C191    1.409   1_554 A
C191   C192    1.406   .     A
C191   H208    1.083   .     S
C191   C190    1.409   1_556 A
C192   H209    1.082   .     S
C192   C193    1.405   1_556 A
C193   C194    1.403   .     A
C193   C192    1.405   1_554 A
C194   C195    1.391   .     A
C194   H210    1.083   .     S
C195   H211    1.083   .     S
C196   N197    1.357   .     A
C196   N201    1.361   1_554 A
N197   N198    1.327   .     A
N198   C199    1.357   .     A
C199   C202    1.480   .     S
C199   N200    1.361   1_554 A
N200   N201    1.334   .     A
N200   C199    1.361   1_556 A
N201   C196    1.361   1_556 A
C202   C207    1.406   .     A
C202   C203    1.406   1_554 A
C203   C204    1.401   .     A
C203   H212    1.083   .     S
C203   C202    1.406   1_556 A
C204   H213    1.083   .     S
C204   C205    1.406   1_556 A
C205   C206    1.403   .     A
C205   C204    1.406   1_554 A
C205   C12     1.477   1_554 S
C206   C207    1.393   .     A
C206   H214    1.083   .     S
C207   H215    1.083   .     S
C216   C217    1.404   .     A
C216   C222    1.476   .     S
C216   C221    1.405   1_556 A
C217   C218    1.396   .     A
C217   H234    1.083   .     S
C218   C219    1.403   .     A
C218   H235    1.083   .     S
C219   C220    1.404   1_556 A
C219   C52     1.473   1_556 S
C220   C221    1.399   .     A
C220   H236    1.083   .     S
C220   C219    1.404   1_554 A
C221   H237    1.083   .     S
C221   C216    1.405   1_554 A
C222   N227    1.358   .     A
C222   N223    1.358   1_556 A
N223   N224    1.332   .     A
N223   C222    1.358   1_554 A
N224   C225    1.359   1_554 A
C225   N226    1.358   .     A
C225   C228    1.478   .     S
C225   N224    1.359   1_556 A
N226   N227    1.332   .     A
C228   C229    1.406   .     A
C228   C233    1.403   1_556 A
C229   C230    1.400   .     A
C229   H238    1.083   .     S
C230   H239    1.083   .     S
C230   C231    1.404   1_556 A
C231   C232    1.405   .     A
C231   C230    1.404   1_554 A
C231   C32     1.476   1_554 S
C232   C233    1.396   .     A
C232   H240    1.083   .     S
C233   H241    1.082   .     S
C233   C228    1.403   1_554 A
C242   C243    1.405   .     A
C242   C248    1.484   .     S
C242   C247    1.409   1_554 A
C243   C244    1.393   .     A
C243   H260    1.082   .     S
C244   C245    1.402   .     A
C244   H261    1.083   .     S
C245   C246    1.405   1_554 A
C246   C247    1.403   .     A
C246   H262    1.083   .     S
C246   C245    1.405   1_556 A
C247   H263    1.083   .     S
C247   C242    1.409   1_556 A
C248   N253    1.358   .     A
C248   N249    1.359   1_554 A
N249   N250    1.334   .     A
N249   C248    1.359   1_556 A
N250   C251    1.360   1_556 A
C251   N252    1.357   .     A
C251   C254    1.483   .     S
C251   N250    1.360   1_554 A
N252   N253    1.330   .     A
C254   C255    1.407   .     A
C254   C259    1.406   1_554 A
C255   C256    1.396   .     A
C255   H264    1.082   .     S
C256   C257    1.402   .     A
C256   H265    1.083   .     S
C257   C258    1.404   1_554 A
C258   C259    1.399   .     A
C258   H266    1.083   .     S
C258   C257    1.404   1_556 A
C259   H267    1.082   .     S
C259   C254    1.406   1_556 A
C268   C273    1.407   .     A
C268   C274    1.484   .     S
C268   C269    1.407   1_556 A
C269   C270    1.399   .     A
C269   H286    1.082   .     S
C269   C268    1.407   1_554 A
C270   H287    1.083   .     S
C270   C271    1.403   1_554 A
C271   C272    1.403   .     A
C271   C270    1.403   1_556 A
C272   C273    1.397   .     A
C272   H288    1.083   .     S
C273   H289    1.083   .     S
C274   N275    1.358   .     A
C274   N279    1.360   1_556 A
N275   N276    1.330   .     A
N276   C277    1.358   .     A
C277   C280    1.485   .     S
C277   N278    1.359   1_556 A
N278   N279    1.333   .     A
N278   C277    1.359   1_554 A
N279   C274    1.360   1_554 A
C280   C285    1.405   .     A
C280   C281    1.409   1_556 A
C281   C282    1.403   .     A
C281   H290    1.083   .     S
C281   C280    1.409   1_554 A
C282   H291    1.083   .     S
C282   C283    1.404   1_554 A
C283   C284    1.403   .     A
C283   C282    1.404   1_556 A
C284   C285    1.393   .     A
C284   H292    1.083   .     S
C285   H293    1.082   .     S
