data_kag+N505+E8
_audit_creation_date              2025-01-21
_audit_creation_method            'Materials Studio'
_symmetry_space_group_name_H-M    'P1'
_symmetry_Int_Tables_number       1
_symmetry_cell_setting            triclinic
loop_
_symmetry_equiv_pos_as_xyz
  x,y,z
_cell_length_a                    27.2730
_cell_length_b                    21.9939
_cell_length_c                    15.0341
_cell_angle_alpha                 92.0910
_cell_angle_beta                  85.2126
_cell_angle_gamma                 102.8425
loop_
_atom_site_label
_atom_site_type_symbol
_atom_site_fract_x
_atom_site_fract_y
_atom_site_fract_z
_atom_site_U_iso_or_equiv
_atom_site_adp_type
_atom_site_occupancy
Yb0    Yb    0.58100   0.51781   0.82889   0.00000  Uiso   1.00
Yb1    Yb    0.43341   0.48493   0.04719   0.00000  Uiso   1.00
C2     C     0.34272   0.46086   0.02711   0.00000  Uiso   1.00
O3     O     0.54284   0.46908   0.72336   0.00000  Uiso   1.00
O4     O     0.58901   0.56410   0.70674   0.00000  Uiso   1.00
O5     O     0.51553   0.55895  -0.12836   0.00000  Uiso   1.00
O6     O     0.44388   0.56137   0.95827   0.00000  Uiso   1.00
O7     O     0.65397   0.50088   0.80183   0.00000  Uiso   1.00
O8     O     0.63889   0.57315  -0.10137   0.00000  Uiso   1.00
O9     O     0.47526   0.52441   0.15381   0.00000  Uiso   1.00
O10    O     0.43292   0.42674   0.15559   0.00000  Uiso   1.00
C11    C     0.56082   0.51555   0.67175   0.00000  Uiso   1.00
O12    O     0.56910   0.44628  -0.07119   0.00000  Uiso   1.00
O13    O     0.49918   0.46811   0.97965   0.00000  Uiso   1.00
O14    O     0.36118   0.49457   0.09329   0.00000  Uiso   1.00
C15    C     0.47753   0.58302  -0.10374   0.00000  Uiso   1.00
O16    O     0.37351   0.43730   0.97385   0.00000  Uiso   1.00
C17    C     0.67082   0.54324   0.86033   0.00000  Uiso   1.00
C18    C     0.46087   0.47289   0.19624   0.00000  Uiso   1.00
C19    C     0.53028   0.43429  -0.01702   0.00000  Uiso   1.00
Yb20   Yb    0.05545   0.56205   0.94896   0.00000  Uiso   1.00
Yb21   Yb    0.94263   0.42338   0.15694   0.00000  Uiso   1.00
C22    C     0.86659   0.34042   0.14763   0.00000  Uiso   1.00
O23    O     0.05497   0.48929   0.85395   0.00000  Uiso   1.00
O24    O     1.04906   0.58327   0.81675   0.00000  Uiso   1.00
O25    O     0.97683   0.52862   0.97564   0.00000  Uiso   1.00
O26    O     0.91363   0.46762   1.05182   0.00000  Uiso   1.00
O27    O     0.13156   0.60638   0.94050   0.00000  Uiso   1.00
O28    O     0.07418   0.65199   0.00856   0.00000  Uiso   1.00
O29    O     0.96329   0.49778   0.24676   0.00000  Uiso   1.00
O30    O    -0.03536   0.40173   0.28089   0.00000  Uiso   1.00
C31    C     1.04942   0.52643   0.79263   0.00000  Uiso   1.00
O32    O     0.05952   0.52368   0.07506   0.00000  Uiso   1.00
O33    O     0.01934   0.42690   0.10368   0.00000  Uiso   1.00
O34    O     0.86620   0.38913   0.19863   0.00000  Uiso   1.00
C35    C     0.92999   0.50834   0.99226   0.00000  Uiso   1.00
O36    O     0.90924   0.33571   1.10703   0.00000  Uiso   1.00
C37    C     0.12124   0.65321   0.98667   0.00000  Uiso   1.00
C38    C    -0.02853   0.45990   0.30456   0.00000  Uiso   1.00
C39    C     0.05956   0.46639   0.07972   0.00000  Uiso   1.00
Yb40   Yb    0.42862   0.97575   0.12617   0.00000  Uiso   1.00
Yb41   Yb    0.57235   0.04222   0.90889   0.00000  Uiso   1.00
C42    C     0.65893   0.08805   0.94204   0.00000  Uiso   1.00
O43    O     0.47359   0.96243   0.22647   0.00000  Uiso   1.00
O44    O     0.42303   0.02779   0.24533   0.00000  Uiso   1.00
O45    O     0.49100   0.04594   0.07078   0.00000  Uiso   1.00
O46    O     0.55053   0.11290  -0.00003   0.00000  Uiso   1.00
O47    O     0.36363   0.91129   0.16748   0.00000  Uiso   1.00
O48    O     0.36202   0.97845   1.06348   0.00000  Uiso   1.00
O49    O     0.53003   0.05204   0.80404   0.00000  Uiso   1.00
O50    O     0.58135   0.98730   0.79253   0.00000  Uiso   1.00
C51    C     0.45504   0.00101   0.27808   0.00000  Uiso   1.00
O52    O     0.44530   0.90785   1.02274   0.00000  Uiso   1.00
O53    O     0.51143   0.97285   0.96948   0.00000  Uiso   1.00
O54    O     0.63950   0.10624   0.87496   0.00000  Uiso   1.00
C55    C     0.51157   0.10268   0.05514   0.00000  Uiso   1.00
O56    O     0.63317   0.03960  -0.01565   0.00000  Uiso   1.00
C57    C     0.33902   0.92968   0.10822   0.00000  Uiso   1.00
C58    C     0.54992   1.01300   0.75571   0.00000  Uiso   1.00
C59    C     0.48339   0.91911   0.96559   0.00000  Uiso   1.00
C60    C     0.53072   0.50482   0.39986   0.00000  Uiso   1.00
C61    C     0.49478   0.47327   0.46485   0.00000  Uiso   1.00
N62    N     0.44956   0.43973   0.43981   0.00000  Uiso   1.00
C63    C     0.43850   0.43645   0.35297   0.00000  Uiso   1.00
C64    C     0.47409   0.46885   0.28810   0.00000  Uiso   1.00
N65    N     0.51943   0.50241   0.31350   0.00000  Uiso   1.00
N66    N     0.57578   0.53870   0.42476   0.00000  Uiso   1.00
C67    C     0.58639   0.54302   0.51182   0.00000  Uiso   1.00
C68    C     0.55029   0.51210   0.57720   0.00000  Uiso   1.00
N69    N     0.50533   0.47749   0.55185   0.00000  Uiso   1.00
H70    H     0.40189   0.41058   0.33521   0.00000  Uiso   1.00
H71    H     0.62254   0.57010   0.52983   0.00000  Uiso   1.00
C72    C     1.01337   0.52406   0.56119   0.00000  Uiso   1.00
C73    C     0.01639   0.46344   0.53136   0.00000  Uiso   1.00
N74    N     0.03198   0.42517   0.58644   0.00000  Uiso   1.00
C75    C     0.04439   0.44457   0.67029   0.00000  Uiso   1.00
C76    C     1.04092   0.50494   0.70037   0.00000  Uiso   1.00
N77    N     1.02600   0.54337   0.64434   0.00000  Uiso   1.00
N78    N     0.99780   0.56247   0.50648   0.00000  Uiso   1.00
C79    C     0.98471   0.54305   0.42337   0.00000  Uiso   1.00
C80    C    -0.01311   0.48217   0.39347   0.00000  Uiso   1.00
N81    N     0.00263   0.44369   0.44853   0.00000  Uiso   1.00
H82    H     0.05645   0.41305   0.71294   0.00000  Uiso   1.00
H83    H     0.97238   0.57482   0.38136   0.00000  Uiso   1.00
C84    C     0.51059  -0.01719   0.48923   0.00000  Uiso   1.00
C85    C     0.49595   0.02997   0.54318   0.00000  Uiso   1.00
N86    N     0.46885   0.06747   0.50953   0.00000  Uiso   1.00
C87    C     0.45507   0.05959   0.42420   0.00000  Uiso   1.00
C88    C     0.46952   0.01230   0.37003   0.00000  Uiso   1.00
N89    N     0.49696  -0.02495   0.40413   0.00000  Uiso   1.00
N90    N     0.53811   0.94576   0.52309   0.00000  Uiso   1.00
C91    C     0.55195   0.95394   0.60860   0.00000  Uiso   1.00
C92    C     0.53698   1.00103   0.66282   0.00000  Uiso   1.00
N93    N     0.50946   1.03780   0.62816   0.00000  Uiso   1.00
H94    H     0.43324   0.08997   0.39921   0.00000  Uiso   1.00
H95    H     0.57399   0.92379   0.63363   0.00000  Uiso   1.00
C96    C     0.20418   0.42836   0.06841   0.00000  Uiso   1.00
C97    C     0.19150   0.46457   0.00232   0.00000  Uiso   1.00
N98    N     0.22766   0.49219   0.94007   0.00000  Uiso   1.00
C99    C     0.27619   0.48646   0.94229   0.00000  Uiso   1.00
C100   C     0.28954   0.45406   0.01157   0.00000  Uiso   1.00
N101   N     0.25305   0.42547   0.07301   0.00000  Uiso   1.00
N102   N     0.16793   0.39998   0.13000   0.00000  Uiso   1.00
C103   C     0.11976   0.40720   0.12964   0.00000  Uiso   1.00
C104   C     0.10772   0.44679   0.06755   0.00000  Uiso   1.00
N105   N     0.14393   0.47428   0.00480   0.00000  Uiso   1.00
H106   H     0.30474   0.51053   0.89381   0.00000  Uiso   1.00
H107   H     0.09196   0.38560   0.18126   0.00000  Uiso   1.00
C108   C     0.78466   0.20003   0.05592   0.00000  Uiso   1.00
C109   C     0.73905   0.21934   0.05566   0.00000  Uiso   1.00
N110   N     0.73452   0.27476   0.09458   0.00000  Uiso   1.00
C111   C     0.77397   0.31244   0.13253   0.00000  Uiso   1.00
C112   C     0.82056   0.29485   0.12861   0.00000  Uiso   1.00
N113   N     0.82452   0.23861   0.09112   0.00000  Uiso   1.00
N114   N     0.78869   0.14393   1.01830   0.00000  Uiso   1.00
C115   C     0.74910   0.10650   0.97984   0.00000  Uiso   1.00
C116   C     0.70400   0.12677   0.97739   0.00000  Uiso   1.00
N117   N     0.70020   0.18275   1.01549   0.00000  Uiso   1.00
H118   H     0.77001   0.35755   0.15963   0.00000  Uiso   1.00
H119   H     0.75256   0.06156   0.95161   0.00000  Uiso   1.00
C120   C     0.81608   0.56111  -0.05035   0.00000  Uiso   1.00
C121   C     0.80434   0.53126   0.86755   0.00000  Uiso   1.00
N122   N     0.83820   0.50234   0.82213   0.00000  Uiso   1.00
C123   C     0.88255   0.50034   0.85630   0.00000  Uiso   1.00
C124   C     0.89275   0.52692   0.94102   0.00000  Uiso   1.00
N125   N     0.85929   0.55711  -0.01492   0.00000  Uiso   1.00
N126   N     0.78212   0.58899  -0.00374   0.00000  Uiso   1.00
C127   C     0.73643   0.58753  -0.03443   0.00000  Uiso   1.00
C128   C     0.72319   0.55476   0.88594   0.00000  Uiso   1.00
N129   N     0.75790   0.52796   0.83813   0.00000  Uiso   1.00
H130   H     0.90798   0.47491   0.82050   0.00000  Uiso   1.00
H131   H     0.70965   0.60892   0.00566   0.00000  Uiso   1.00
C132   C     0.24109   0.78723   0.08343   0.00000  Uiso   1.00
C133   C     0.20646   0.80653   1.03272   0.00000  Uiso   1.00
N134   N     0.21424   0.86777   1.01140   0.00000  Uiso   1.00
C135   C     0.25564   0.91018   0.03696   0.00000  Uiso   1.00
C136   C     0.29030   0.89037   0.08722   0.00000  Uiso   1.00
N137   N     0.28148   0.82940   0.10974   0.00000  Uiso   1.00
N138   N     0.23565   0.72609   0.10109   0.00000  Uiso   1.00
C139   C     0.19712   0.68278   1.07006   0.00000  Uiso   1.00
C140   C     0.16199   0.70145   1.02020   0.00000  Uiso   1.00
N141   N     0.16705   0.76318   1.00290   0.00000  Uiso   1.00
H142   H     0.26172   0.95839   0.01749   0.00000  Uiso   1.00
H143   H     0.19381   0.63398   1.08432   0.00000  Uiso   1.00
C144   C     0.46118   0.76330   0.86447   0.00000  Uiso   1.00
C145   C     0.50997   0.75150   0.85931   0.00000  Uiso   1.00
N146   N     0.54997   0.79966   0.87119   0.00000  Uiso   1.00
C147   C     0.54330   0.85833   0.89215   0.00000  Uiso   1.00
C148   C     0.49403   0.86825   0.90652   0.00000  Uiso   1.00
N149   N     0.45448   0.82076   0.88957   0.00000  Uiso   1.00
N150   N     0.42054   0.71521  -0.14064   0.00000  Uiso   1.00
C151   C     0.42599   0.65531  -0.14474   0.00000  Uiso   1.00
C152   C     0.47411   0.64270   0.85978   0.00000  Uiso   1.00
N153   N     0.51529   0.69135   0.85819   0.00000  Uiso   1.00
H154   H     0.57548   0.89452   0.90787   0.00000  Uiso   1.00
H155   H     0.39245   0.61787  -0.14222   0.00000  Uiso   1.00
C156   C     0.48176   0.27683   0.07179   0.00000  Uiso   1.00
C157   C     0.52584   0.26636   0.10501   0.00000  Uiso   1.00
N158   N     0.56608   0.31450   0.11319   0.00000  Uiso   1.00
C159   C     0.56553   0.37215   0.08459   0.00000  Uiso   1.00
C160   C     0.52332   0.38183   0.04406   0.00000  Uiso   1.00
N161   N     0.48174   0.33423   0.04079   0.00000  Uiso   1.00
N162   N     0.44297   0.22739   1.05808   0.00000  Uiso   1.00
C163   C     0.44764   0.16773   0.07001   0.00000  Uiso   1.00
C164   C     0.49401   0.15718   0.09248   0.00000  Uiso   1.00
N165   N     0.53107   0.20710   0.11290   0.00000  Uiso   1.00
H166   H     0.59936   0.40889   0.08652   0.00000  Uiso   1.00
H167   H     0.41778   0.12925   1.05169   0.00000  Uiso   1.00
loop_
_geom_bond_atom_site_label_1
_geom_bond_atom_site_label_2
_geom_bond_distance
_geom_bond_site_symmetry_2
_ccdc_geom_bond_type
Yb0    O3      2.099   .     S
Yb0    O4      2.104   .     S
Yb0    O7      2.109   .     S
Yb0    O5      2.214   1_556 S
Yb0    O8      2.098   1_556 S
Yb0    O12     2.168   1_556 S
Yb1    O9      2.095   .     S
Yb1    O10     2.106   .     S
Yb1    O14     2.086   .     S
Yb1    O6      2.141   1_554 S
Yb1    O13     2.086   1_554 S
Yb1    O16     2.106   1_554 S
C2     O14     1.287   .     A
C2     C100    1.462   .     S
C2     O16     1.291   1_554 A
O3     C11     1.288   .     A
O4     C11     1.292   .     A
O5     C15     1.287   .     A
O5     Yb0     2.214   1_554 S
O6     Yb1     2.141   1_556 S
O6     C15     1.278   1_556 A
O7     C17     1.292   .     A
O8     Yb0     2.098   1_554 S
O8     C17     1.291   1_554 A
O9     C18     1.288   .     A
O10    C18     1.294   .     A
C11    C68     1.469   .     S
O12    C19     1.265   .     A
O12    Yb0     2.168   1_554 S
O13    Yb1     2.086   1_556 S
O13    C19     1.251   1_556 A
C15    O6      1.278   1_554 A
C15    C152    1.466   1_554 S
O16    Yb1     2.106   1_556 S
O16    C2      1.291   1_556 A
C17    C128    1.475   .     S
C17    O8      1.291   1_556 A
C18    C64     1.467   .     S
C19    C160    1.470   .     S
C19    O13     1.251   1_554 A
Yb20   O23     2.104   .     S
Yb20   O27     2.084   .     S
Yb20   O24     2.088   1_455 S
Yb20   O25     2.116   1_455 S
Yb20   O28     2.115   1_556 S
Yb20   O32     2.124   1_556 S
Yb21   O29     2.092   .     S
Yb21   O34     2.103   .     S
Yb21   O26     2.176   1_554 S
Yb21   O30     2.107   1_655 S
Yb21   O33     2.163   1_655 S
Yb21   O36     2.083   1_554 S
C22    O34     1.296   .     A
C22    C112    1.464   .     S
C22    O36     1.291   1_554 A
O23    C31     1.293   1_455 A
O24    C31     1.291   .     A
O24    Yb20    2.088   1_655 S
O25    C35     1.263   .     A
O25    Yb20    2.116   1_655 S
O26    C35     1.272   .     A
O26    Yb21    2.176   1_556 S
O27    C37     1.291   .     A
O28    Yb20    2.115   1_554 S
O28    C37     1.293   1_554 A
O29    C38     1.291   1_655 A
O30    C38     1.292   .     A
O30    Yb21    2.107   1_455 S
C31    C76     1.469   .     S
C31    O23     1.293   1_655 A
O32    C39     1.265   .     A
O32    Yb20    2.124   1_554 S
O33    C39     1.273   .     A
O33    Yb21    2.163   1_455 S
C35    C124    1.460   .     S
O36    Yb21    2.083   1_556 S
O36    C22     1.291   1_556 A
C37    C140    1.465   .     S
C37    O28     1.293   1_556 A
C38    C80     1.469   .     S
C38    O29     1.291   1_455 A
C39    C104    1.466   .     S
Yb40   O43     2.089   .     S
Yb40   O47     2.074   .     S
Yb40   O44     2.104   1_565 S
Yb40   O45     2.159   1_565 S
Yb40   O48     2.128   1_554 S
Yb40   O52     2.207   1_554 S
Yb41   O49     2.074   .     S
Yb41   O54     2.085   .     S
Yb41   O46     2.183   1_556 S
Yb41   O50     2.118   1_545 S
Yb41   O53     2.154   1_545 S
Yb41   O56     2.098   1_556 S
C42    O54     1.293   .     A
C42    C116    1.459   .     S
C42    O56     1.294   1_556 A
O43    C51     1.286   1_565 A
O44    C51     1.293   .     A
O44    Yb40    2.104   1_545 S
O45    C55     1.271   .     A
O45    Yb40    2.159   1_545 S
O46    C55     1.276   .     A
O46    Yb41    2.183   1_554 S
O47    C57     1.286   .     A
O48    Yb40    2.128   1_556 S
O48    C57     1.296   1_556 A
O49    C58     1.287   1_545 A
O50    C58     1.296   .     A
O50    Yb41    2.118   1_565 S
C51    C88     1.467   .     S
C51    O43     1.286   1_545 A
O52    C59     1.277   .     A
O52    Yb40    2.207   1_556 S
O53    C59     1.259   .     A
O53    Yb41    2.154   1_565 S
C55    C164    1.464   .     S
O56    Yb41    2.098   1_554 S
O56    C42     1.294   1_554 A
C57    C136    1.467   .     S
C57    O48     1.296   1_554 A
C58    C92     1.469   .     S
C58    O49     1.287   1_565 A
C59    C148    1.467   .     S
C60    C61     1.409   .     A
C60    N65     1.356   .     A
C60    N66     1.362   .     A
C61    N62     1.364   .     A
C61    N69     1.358   .     A
N62    C63     1.360   .     A
C63    C64     1.409   .     A
C63    H70     1.083   .     S
C64    N65     1.368   .     A
N66    C67     1.359   .     A
C67    C68     1.410   .     A
C67    H71     1.083   .     S
C68    N69     1.368   .     A
C72    N77     1.353   .     A
C72    N78     1.356   .     A
C72    C73     1.409   1_655 A
C73    N74     1.358   .     A
C73    N81     1.359   .     A
C73    C72     1.409   1_455 A
N74    C75     1.361   .     A
C75    H82     1.081   .     S
C75    C76     1.408   1_455 A
C76    N77     1.361   .     A
C76    C75     1.408   1_655 A
N78    C79     1.356   .     A
C79    H83     1.083   .     S
C79    C80     1.409   1_655 A
C80    N81     1.363   .     A
C80    C79     1.409   1_455 A
C84    C85     1.401   .     A
C84    N89     1.356   .     A
C84    N90     1.361   1_545 A
C85    N86     1.359   .     A
C85    N93     1.354   1_545 A
N86    C87     1.361   .     A
C87    C88     1.403   .     A
C87    H94     1.084   .     S
C88    N89     1.364   .     A
N90    C91     1.364   .     A
N90    C84     1.361   1_565 A
C91    C92     1.405   .     A
C91    H95     1.084   .     S
C92    N93     1.362   .     A
N93    C85     1.354   1_565 A
C96    C97     1.407   .     A
C96    N101    1.356   .     A
C96    N102    1.356   .     A
C97    N105    1.358   .     A
C97    N98     1.356   1_554 A
N98    C99     1.360   .     A
N98    C97     1.356   1_556 A
C99    H106    1.081   .     S
C99    C100    1.399   1_556 A
C100   N101    1.360   .     A
C100   C99     1.399   1_554 A
N102   C103    1.358   .     A
C103   C104    1.405   .     A
C103   H107    1.082   .     S
C104   N105    1.361   .     A
C108   C109    1.401   .     A
C108   N113    1.355   .     A
C108   N114    1.361   1_554 A
C109   N110    1.359   .     A
C109   N117    1.352   1_554 A
N110   C111    1.357   .     A
C111   C112    1.404   .     A
C111   H118    1.083   .     S
C112   N113    1.363   .     A
N114   C115    1.361   .     A
N114   C108    1.361   1_556 A
C115   C116    1.402   .     A
C115   H119    1.082   .     S
C116   N117    1.360   .     A
N117   C109    1.352   1_556 A
C120   N125    1.354   .     A
C120   N126    1.356   .     A
C120   C121    1.404   1_554 A
C121   N122    1.359   .     A
C121   N129    1.362   .     A
C121   C120    1.404   1_556 A
N122   C123    1.363   .     A
C123   C124    1.405   .     A
C123   H130    1.082   .     S
C124   N125    1.360   1_556 A
N125   C124    1.360   1_554 A
N126   C127    1.358   .     A
C127   H131    1.085   .     S
C127   C128    1.406   1_554 A
C128   N129    1.365   .     A
C128   C127    1.406   1_556 A
C132   N137    1.350   .     A
C132   N138    1.353   .     A
C132   C133    1.405   1_554 A
C133   N134    1.362   .     A
C133   N141    1.364   .     A
C133   C132    1.405   1_556 A
N134   C135    1.368   1_556 A
C135   C136    1.407   .     A
C135   H142    1.083   .     S
C135   N134    1.368   1_554 A
C136   N137    1.359   .     A
N138   C139    1.354   1_554 A
C139   C140    1.402   .     A
C139   H143    1.085   .     S
C139   N138    1.354   1_556 A
C140   N141    1.366   .     A
C144   C145    1.407   .     A
C144   N149    1.353   .     A
C144   N150    1.356   1_556 A
C145   N146    1.360   .     A
C145   N153    1.362   .     A
N146   C147    1.365   .     A
C147   C148    1.407   .     A
C147   H154    1.082   .     S
C148   N149    1.358   .     A
N150   C151    1.357   .     A
N150   C144    1.356   1_554 A
C151   H155    1.085   .     S
C151   C152    1.408   1_554 A
C152   N153    1.368   .     A
C152   C151    1.408   1_556 A
C152   C15     1.466   1_556 S
C156   C157    1.407   .     A
C156   N161    1.362   .     A
C156   N162    1.361   1_554 A
C157   N158    1.355   .     A
C157   N165    1.353   .     A
N158   C159    1.357   .     A
C159   C160    1.406   .     A
C159   H166    1.085   .     S
C160   N161    1.365   .     A
N162   C156    1.361   1_556 A
N162   C163    1.366   1_556 A
C163   C164    1.405   .     A
C163   N162    1.366   1_554 A
C163   H167    1.081   1_554 S
C164   N165    1.362   .     A
H167   C163    1.081   1_556 S
