data_kag+N123+E9
_audit_creation_date              2025-01-21
_audit_creation_method            'Materials Studio'
_symmetry_space_group_name_H-M    'P1'
_symmetry_Int_Tables_number       1
_symmetry_cell_setting            triclinic
loop_
_symmetry_equiv_pos_as_xyz
  x,y,z
_cell_length_a                    42.9068
_cell_length_b                    41.3425
_cell_length_c                    18.9336
_cell_angle_alpha                 96.8443
_cell_angle_beta                  90.4705
_cell_angle_gamma                 124.1830
loop_
_atom_site_label
_atom_site_type_symbol
_atom_site_fract_x
_atom_site_fract_y
_atom_site_fract_z
_atom_site_U_iso_or_equiv
_atom_site_adp_type
_atom_site_occupancy
Ce0    Ce    0.54341   0.51425   0.01047   0.00000  Uiso   1.00
Ce1    Ce    0.46274   0.48054   0.99409   0.00000  Uiso   1.00
C2     C     0.47342   0.49321   0.13723   0.00000  Uiso   1.00
C3     C     0.61766   0.54309   0.01702   0.00000  Uiso   1.00
C4     C     0.51966   0.57554   1.00221   0.00000  Uiso   1.00
C5     C     0.53262   0.50731   0.86851   0.00000  Uiso   1.00
C6     C     0.38872   0.45265   0.98579   0.00000  Uiso   1.00
C7     C     0.48639   0.41912   0.00197   0.00000  Uiso   1.00
O8     O     0.44261   0.47992   0.10544   0.00000  Uiso   1.00
O9     O     0.50249   0.50211   0.09364   0.00000  Uiso   1.00
O10    O     0.60035   0.54046   0.07293   0.00000  Uiso   1.00
O11    O     0.59752   0.53249   0.95781   0.00000  Uiso   1.00
O12    O     0.54798   0.57272   1.01106   0.00000  Uiso   1.00
O13    O     0.48466   0.54562   0.99460   0.00000  Uiso   1.00
O14    O     0.56405   0.52233   0.89922   0.00000  Uiso   1.00
O15    O     0.50274   0.48861   0.91101   0.00000  Uiso   1.00
O16    O     0.40623   0.45481   0.93035   0.00000  Uiso   1.00
O17    O     0.40861   0.46359   0.04547   0.00000  Uiso   1.00
O18    O     0.45790   0.42215  -0.00271   0.00000  Uiso   1.00
O19    O     0.52158   0.44883   0.00578   0.00000  Uiso   1.00
Ce20   Ce    0.02519   0.48118  -0.00769   0.00000  Uiso   1.00
Ce21   Ce    0.98374   0.51790   0.00645   0.00000  Uiso   1.00
C22    C     0.98458   0.50974   0.86441   0.00000  Uiso   1.00
C23    C     0.06647   0.45048   0.98422   0.00000  Uiso   1.00
C24    C     0.93435   0.42197  -0.01143   0.00000  Uiso   1.00
C25    C     0.02490   0.48991   0.13442   0.00000  Uiso   1.00
C26    C     0.94185   0.54797   0.01402   0.00000  Uiso   1.00
C27    C     0.07465   0.57709   1.01161   0.00000  Uiso   1.00
O28    O     0.96896   0.52402   0.89507   0.00000  Uiso   1.00
O29    O     0.00119   0.49770   0.90861   0.00000  Uiso   1.00
O30    O     0.05362   0.45582   0.92888   0.00000  Uiso   1.00
O31    O     0.05703   0.45931   0.04368   0.00000  Uiso   1.00
O32    O     0.96538   0.42355  -0.01420   0.00000  Uiso   1.00
O33    O     0.93314   0.45281  -0.00501   0.00000  Uiso   1.00
O34    O     0.04010   0.47518   0.10365   0.00000  Uiso   1.00
O35    O     0.00810   0.50177   0.09022   0.00000  Uiso   1.00
O36    O     0.95483   0.54285   0.06947   0.00000  Uiso   1.00
O37    O     0.95164   0.53947   0.95471   0.00000  Uiso   1.00
O38    O     0.04359   0.57551   1.01343   0.00000  Uiso   1.00
O39    O     0.07585   0.54623   1.00447   0.00000  Uiso   1.00
Ce40   Ce    0.51774   0.97098   0.98997   0.00000  Uiso   1.00
Ce41   Ce    0.48852   0.02305  -0.00877   0.00000  Uiso   1.00
C42    C     0.50497   0.02699   0.13082   0.00000  Uiso   1.00
C43    C     0.54073   0.92223   0.98330   0.00000  Uiso   1.00
C44    C     0.57891   0.06673   0.98192   0.00000  Uiso   1.00
C45    C     0.52100   0.99858   0.86174   0.00000  Uiso   1.00
C46    C     0.46491   0.07148   0.00394   0.00000  Uiso   1.00
C47    C     0.42921   0.93109   0.01508   0.00000  Uiso   1.00
O48    O     0.48930   0.04194   0.11073   0.00000  Uiso   1.00
O49    O     0.51990   0.01592   0.07521   0.00000  Uiso   1.00
O50    O     0.54790   0.94668   0.03947   0.00000  Uiso   1.00
O51    O     0.52371   0.92419   0.93009   0.00000  Uiso   1.00
O52    O     0.57437   0.03251   0.98040   0.00000  Uiso   1.00
O53    O     0.55125   0.07120  -0.01763   0.00000  Uiso   1.00
O54    O     0.54761   1.00125   0.89195   0.00000  Uiso   1.00
O55    O     0.49007   0.98271   0.90121   0.00000  Uiso   1.00
O56    O     0.46112   0.05078   0.94460   0.00000  Uiso   1.00
O57    O     0.47889   0.06596   0.05737   0.00000  Uiso   1.00
O58    O     0.43314   0.96407   0.00823   0.00000  Uiso   1.00
O59    O     0.45641   0.92604   1.01245   0.00000  Uiso   1.00
C60    C     0.49104   0.50513   0.35806   0.00000  Uiso   1.00
N61    N     0.45582   0.48908   0.32651   0.00000  Uiso   1.00
N62    N     0.45014   0.48589   0.25601   0.00000  Uiso   1.00
C63    C     0.47949   0.49858   0.21482   0.00000  Uiso   1.00
N64    N     0.51468   0.51484   0.24638   0.00000  Uiso   1.00
N65    N     0.52038   0.51813   0.31680   0.00000  Uiso   1.00
C66    C     0.49721   0.50704   0.43500   0.00000  Uiso   1.00
N67    N     0.53261   0.52370   0.46609   0.00000  Uiso   1.00
N68    N     0.53824   0.52421   0.53555   0.00000  Uiso   1.00
C69    C     0.50866   0.50795   0.57631   0.00000  Uiso   1.00
N70    N     0.47325   0.49145   0.54533   0.00000  Uiso   1.00
N71    N     0.46762   0.49100   0.47583   0.00000  Uiso   1.00
C72    C     0.51489   0.50764   0.65223   0.00000  Uiso   1.00
N73    N     0.48525   0.48991   0.69259   0.00000  Uiso   1.00
N74    N     0.49099   0.48946   0.76156   0.00000  Uiso   1.00
C75    C     0.52652   0.50662   0.79239   0.00000  Uiso   1.00
N76    N     0.55617   0.52434   0.75212   0.00000  Uiso   1.00
N77    N     0.55043   0.52476   0.68313   0.00000  Uiso   1.00
C78    C    -0.00358   0.50428   0.64651   0.00000  Uiso   1.00
N79    N     1.01000   0.48980   0.68876   0.00000  Uiso   1.00
N80    N     1.00550   0.49100   0.75818   0.00000  Uiso   1.00
C81    C    -0.01283   0.50660   0.78765   0.00000  Uiso   1.00
N82    N    -0.02669   0.52087   0.74545   0.00000  Uiso   1.00
N83    N    -0.02218   0.51967   0.67588   0.00000  Uiso   1.00
C84    C     0.00231   0.50374   0.57071   0.00000  Uiso   1.00
N85    N    -0.01088   0.51844   0.52805   0.00000  Uiso   1.00
N86    N    -0.00561   0.51770   0.45888   0.00000  Uiso   1.00
C87    C     0.01308   0.50232   0.43014   0.00000  Uiso   1.00
N88    N     1.02646   0.48782   0.47289   0.00000  Uiso   1.00
N89    N     1.02120   0.48857   0.54206   0.00000  Uiso   1.00
C90    C     0.01766   0.50035   0.35380   0.00000  Uiso   1.00
N91    N     1.03546   0.48409   0.32414   0.00000  Uiso   1.00
N92    N     1.03836   0.48113   0.25402   0.00000  Uiso   1.00
C93    C     0.02352   0.49436   0.21149   0.00000  Uiso   1.00
N94    N     0.00595   0.51077   0.24120   0.00000  Uiso   1.00
N95    N     0.00307   0.51373   0.31118   0.00000  Uiso   1.00
C96    C     0.51621   0.02168   0.34897   0.00000  Uiso   1.00
N97    N     0.50977   0.99170   0.29856   0.00000  Uiso   1.00
N98    N     0.50740   0.99381   0.22900   0.00000  Uiso   1.00
C99    C     0.51075   0.02570   0.20723   0.00000  Uiso   1.00
N100   N     0.51689   0.05547   0.25764   0.00000  Uiso   1.00
N101   N     0.52002   0.05373   0.32704   0.00000  Uiso   1.00
C102   C     0.51785   0.01913   0.42613   0.00000  Uiso   1.00
N103   N     0.54151   0.05202   0.47428   0.00000  Uiso   1.00
N104   N     0.54235   0.04994   0.54408   0.00000  Uiso   1.00
C105   C     0.51892   0.01502   0.56865   0.00000  Uiso   1.00
N106   N     0.49504   0.98221   0.52054   0.00000  Uiso   1.00
N107   N     0.49472   0.98415   0.45065   0.00000  Uiso   1.00
C108   C     0.51935   1.01260   0.64604   0.00000  Uiso   1.00
N109   N     0.48708   0.98661   0.67472   0.00000  Uiso   1.00
N110   N     0.48751   0.98351   0.74404   0.00000  Uiso   1.00
C111   C     0.52029   1.00588   0.78737   0.00000  Uiso   1.00
N112   N     0.55264   0.03183   0.75873   0.00000  Uiso   1.00
N113   N     0.55208   0.03546   0.68961   0.00000  Uiso   1.00
C114   C     0.27897   0.42519  -0.02258   0.00000  Uiso   1.00
N115   N     0.29789   0.43130   0.04076   0.00000  Uiso   1.00
N116   N     0.33244   0.43885   0.04304   0.00000  Uiso   1.00
C117   C     0.34933   0.44046   0.98207   0.00000  Uiso   1.00
N118   N     0.33025   0.43377   0.91854   0.00000  Uiso   1.00
N119   N     0.29567   0.42630   0.91626   0.00000  Uiso   1.00
C120   C     0.24250   0.42075  -0.02404   0.00000  Uiso   1.00
N121   N     0.22508   0.41862   0.91366   0.00000  Uiso   1.00
N122   N     0.19374   0.41813   0.91345   0.00000  Uiso   1.00
C123   C     0.17868   0.41970  -0.02448   0.00000  Uiso   1.00
N124   N     0.19584   0.42131   0.03764   0.00000  Uiso   1.00
N125   N     0.22716   0.42183   0.03787   0.00000  Uiso   1.00
C126   C     0.14643   0.42317  -0.02351   0.00000  Uiso   1.00
N127   N     0.13370   0.42807   0.03954   0.00000  Uiso   1.00
N128   N     0.10704   0.43520   0.04158   0.00000  Uiso   1.00
C129   C     0.09211   0.43764  -0.01936   0.00000  Uiso   1.00
N130   N     0.10433   0.43206   0.91739   0.00000  Uiso   1.00
N131   N     0.13101   0.42492   0.91534   0.00000  Uiso   1.00
C132   C     0.83064   0.31283  -0.01688   0.00000  Uiso   1.00
N133   N     0.86321   0.31461  -0.01954   0.00000  Uiso   1.00
N134   N     0.89642   0.34928  -0.01845   0.00000  Uiso   1.00
C135   C     0.89813   0.38330  -0.01476   0.00000  Uiso   1.00
N136   N     0.86555   0.38136   0.98772   0.00000  Uiso   1.00
N137   N     0.83248   0.34683   0.98660   0.00000  Uiso   1.00
C138   C     0.79374   0.27514   0.98255   0.00000  Uiso   1.00
N139   N     0.76198   0.27481   0.98464   0.00000  Uiso   1.00
N140   N     0.72824   0.24109   0.98406   0.00000  Uiso   1.00
C141   C     0.72488   0.20632   0.98141   0.00000  Uiso   1.00
N142   N     0.75664   0.20652  -0.02046   0.00000  Uiso   1.00
N143   N     0.79053   0.24038  -0.01991   0.00000  Uiso   1.00
C144   C     0.68723   0.16950   0.98067   0.00000  Uiso   1.00
N145   N     0.68249   0.13399  -0.02148   0.00000  Uiso   1.00
N146   N     0.64799   0.10098  -0.02154   0.00000  Uiso   1.00
C147   C     0.61711   0.10241   0.98043   0.00000  Uiso   1.00
N148   N     0.62199   0.13789   0.98237   0.00000  Uiso   1.00
N149   N     0.65634   0.17076   0.98246   0.00000  Uiso   1.00
C150   C     0.86049   0.57344   1.02182   0.00000  Uiso   1.00
N151   N     0.87327   0.56870   0.95868   0.00000  Uiso   1.00
N152   N     0.90032   0.56213   0.95653   0.00000  Uiso   1.00
C153   C     0.91564   0.56014   1.01746   0.00000  Uiso   1.00
N154   N     0.90331   0.56549   0.08076   0.00000  Uiso   1.00
N155   N     0.87625   0.57206   0.08291   0.00000  Uiso   1.00
C156   C     0.82797   0.57649   1.02314   0.00000  Uiso   1.00
N157   N     0.81303   0.57794   0.08544   0.00000  Uiso   1.00
N158   N     0.78157   0.57721   0.08569   0.00000  Uiso   1.00
C159   C     0.76389   0.57497   1.02365   0.00000  Uiso   1.00
N160   N     0.77911   0.57402   0.96150   0.00000  Uiso   1.00
N161   N     0.81054   0.57476   0.96124   0.00000  Uiso   1.00
C162   C     0.72737   0.57044   1.02292   0.00000  Uiso   1.00
N163   N     0.70828   0.56465   0.95999   0.00000  Uiso   1.00
N164   N     0.67375   0.55716   0.95848   0.00000  Uiso   1.00
C165   C     0.65705   0.55528   0.01982   0.00000  Uiso   1.00
N166   N     0.67629   0.56158   0.08290   0.00000  Uiso   1.00
N167   N     0.71083   0.56901   0.08441   0.00000  Uiso   1.00
C168   C     0.32190   0.83064   0.03449   0.00000  Uiso   1.00
N169   N     0.35315   0.83009   1.03950   0.00000  Uiso   1.00
N170   N     0.38726   0.86239   1.03475   0.00000  Uiso   1.00
C171   C     0.39153   0.89660   0.02493   0.00000  Uiso   1.00
N172   N     0.36033   0.89740   0.02075   0.00000  Uiso   1.00
N173   N     0.32608   0.86496   0.02542   0.00000  Uiso   1.00
C174   C     0.28438   0.79395   0.03547   0.00000  Uiso   1.00
N175   N     0.25224   0.79289   0.02875   0.00000  Uiso   1.00
N176   N     0.21839   0.75887   0.02696   0.00000  Uiso   1.00
C177   C     0.21555   0.72476   0.03159   0.00000  Uiso   1.00
N178   N     0.24768   0.72596   1.03850   0.00000  Uiso   1.00
N179   N     0.28141   0.75987   1.04042   0.00000  Uiso   1.00
C180   C     0.17862   0.68680   1.02764   0.00000  Uiso   1.00
N181   N     0.17691   0.65296   1.02637   0.00000  Uiso   1.00
N182   N     0.14374   0.61819   1.02153   0.00000  Uiso   1.00
C183   C     0.11094   0.61586   1.01793   0.00000  Uiso   1.00
N184   N     0.11254   0.64973   0.01954   0.00000  Uiso   1.00
N185   N     0.14582   0.68461   0.02418   0.00000  Uiso   1.00
C186   C     0.55377   0.82943   0.97987   0.00000  Uiso   1.00
N187   N     0.56896   0.85871   0.03690   0.00000  Uiso   1.00
N188   N     0.56624   0.88936   0.03738   0.00000  Uiso   1.00
C189   C     0.54852   0.89186   0.98055   0.00000  Uiso   1.00
N190   N     0.53408   0.86299   0.92319   0.00000  Uiso   1.00
N191   N     0.53656   0.83233   0.92291   0.00000  Uiso   1.00
C192   C     0.55240   0.79324   0.98145   0.00000  Uiso   1.00
N193   N     0.52747   0.76035   0.93478   0.00000  Uiso   1.00
N194   N     0.52386   0.72644   0.93794   0.00000  Uiso   1.00
C195   C     0.54533   0.72420   0.98744   0.00000  Uiso   1.00
N196   N     0.57071   0.75721   0.03376   0.00000  Uiso   1.00
N197   N     0.57402   0.79114   0.03113   0.00000  Uiso   1.00
C198   C     0.53947   0.68599   0.99194   0.00000  Uiso   1.00
N199   N     0.56628   0.68358   0.02457   0.00000  Uiso   1.00
N200   N     0.56028   0.64843   0.02768   0.00000  Uiso   1.00
C201   C     0.52708   0.61456   0.99916   0.00000  Uiso   1.00
N202   N     0.50034   0.61711   0.96698   0.00000  Uiso   1.00
N203   N     0.50651   0.65215   0.96306   0.00000  Uiso   1.00
C204   C     0.46597   0.30826   0.01105   0.00000  Uiso   1.00
N205   N     0.50012   0.34200   0.03497   0.00000  Uiso   1.00
N206   N     0.50651   0.37717   0.03135   0.00000  Uiso   1.00
C207   C     0.47886   0.37999   0.00446   0.00000  Uiso   1.00
N208   N     0.44452   0.34625   0.98093   0.00000  Uiso   1.00
N209   N     0.43826   0.31095   0.98368   0.00000  Uiso   1.00
C210   C     0.45986   0.26984   0.01464   0.00000  Uiso   1.00
N211   N     0.43349   0.23691   0.96923   0.00000  Uiso   1.00
N212   N     0.43004   0.20281   0.97020   0.00000  Uiso   1.00
C213   C     0.45246   0.20038   0.01735   0.00000  Uiso   1.00
N214   N     0.47834   0.23317   0.06329   0.00000  Uiso   1.00
N215   N     0.48213   0.26729   0.06169   0.00000  Uiso   1.00
C216   C     0.45105   0.16401   0.01632   0.00000  Uiso   1.00
N217   N     0.46754   0.15970   0.07258   0.00000  Uiso   1.00
N218   N     0.47020   0.12902   0.06958   0.00000  Uiso   1.00
C219   C     0.45676   0.10165   0.01000   0.00000  Uiso   1.00
N220   N     0.43978   0.10557   0.95390   0.00000  Uiso   1.00
N221   N     0.43679   0.13614   0.95717   0.00000  Uiso   1.00
loop_
_geom_bond_atom_site_label_1
_geom_bond_atom_site_label_2
_geom_bond_distance
_geom_bond_site_symmetry_2
_ccdc_geom_bond_type
Ce0    O9      2.249   .     S
Ce0    O10     2.283   .     S
Ce0    O19     2.301   .     S
Ce0    O11     2.281   1_554 S
Ce0    O12     2.312   1_554 S
Ce0    O14     2.280   1_554 S
Ce0    O15     2.260   1_554 S
Ce1    O13     2.296   .     S
Ce1    O15     2.249   .     S
Ce1    O16     2.284   .     S
Ce1    O8      2.283   1_556 S
Ce1    O9      2.257   1_556 S
Ce1    O17     2.281   1_556 S
Ce1    O18     2.312   1_556 S
C2     O8      1.226   .     D
C2     O9      1.395   .     S
C2     C63     1.458   .     S
C3     O10     1.278   .     A
C3     C165    1.466   .     S
C3     O11     1.280   1_554 A
C4     O12     1.295   .     A
C4     O13     1.294   .     A
C4     C201    1.467   .     S
C5     O14     1.225   .     D
C5     O15     1.393   .     S
C5     C75     1.457   .     S
C6     O16     1.278   .     A
C6     C117    1.466   .     S
C6     O17     1.280   1_556 A
C7     O18     1.300   .     A
C7     O19     1.299   .     A
C7     C207    1.468   .     S
O8     Ce1     2.283   1_554 S
O9     Ce1     2.257   1_554 S
O11    Ce0     2.281   1_556 S
O11    C3      1.280   1_556 A
O12    Ce0     2.312   1_556 S
O14    Ce0     2.280   1_556 S
O15    Ce0     2.260   1_556 S
O17    Ce1     2.281   1_554 S
O17    C6      1.280   1_554 A
O18    Ce1     2.312   1_554 S
Ce20   O31     2.282   .     S
Ce20   O34     2.280   .     S
Ce20   O35     2.246   .     S
Ce20   O29     2.249   1_554 S
Ce20   O30     2.278   1_554 S
Ce20   O32     2.309   1_455 S
Ce20   O39     2.299   1_554 S
Ce21   O33     2.300   .     S
Ce21   O36     2.279   .     S
Ce21   O28     2.280   1_554 S
Ce21   O29     2.246   1_654 S
Ce21   O35     2.250   1_655 S
Ce21   O37     2.284   1_554 S
Ce21   O38     2.309   1_654 S
C22    O28     1.226   .     D
C22    O29     1.394   1_655 S
C22    C81     1.454   1_655 S
C23    O30     1.278   .     A
C23    O31     1.281   1_556 A
C23    C129    1.465   1_556 S
C24    O32     1.297   .     A
C24    O33     1.296   .     A
C24    C135    1.469   .     S
C25    O34     1.226   .     D
C25    O35     1.395   .     S
C25    C93     1.455   .     S
C26    O36     1.278   .     A
C26    O37     1.281   1_554 A
C26    C153    1.466   1_554 S
C27    O38     1.298   .     A
C27    O39     1.297   .     A
C27    C183    1.468   .     S
O28    Ce21    2.280   1_556 S
O29    Ce20    2.249   1_556 S
O29    Ce21    2.246   1_456 S
O29    C22     1.394   1_455 S
O30    Ce20    2.278   1_556 S
O31    C23     1.281   1_554 A
O32    Ce20    2.309   1_655 S
O35    Ce21    2.250   1_455 S
O37    Ce21    2.284   1_556 S
O37    C26     1.281   1_556 A
O38    Ce21    2.309   1_456 S
O39    Ce20    2.299   1_556 S
Ce40   O51     2.266   .     S
Ce40   O54     2.333   .     S
Ce40   O55     2.297   .     S
Ce40   O59     2.296   .     S
Ce40   O49     2.270   1_566 S
Ce40   O50     2.286   1_556 S
Ce40   O52     2.362   1_565 S
Ce41   O48     2.298   .     S
Ce41   O49     2.225   .     S
Ce41   O53     2.302   .     S
Ce41   O57     2.278   .     S
Ce41   O55     2.267   1_544 S
Ce41   O56     2.283   1_554 S
Ce41   O58     2.320   1_545 S
C42    O48     1.224   .     D
C42    O49     1.398   .     S
C42    C99     1.478   .     S
C43    O51     1.276   .     A
C43    C189    1.466   .     S
C43    O50     1.279   1_556 A
C44    O52     1.312   .     A
C44    C147    1.469   .     S
C44    O53     1.300   1_556 A
C45    O54     1.215   .     D
C45    O55     1.380   .     S
C45    C111    1.478   .     S
C46    O57     1.279   .     A
C46    C219    1.465   .     S
C46    O56     1.278   1_554 A
C47    O58     1.299   .     A
C47    C171    1.470   .     S
C47    O59     1.297   1_554 A
O49    Ce40    2.270   1_544 S
O50    Ce40    2.286   1_554 S
O50    C43     1.279   1_554 A
O52    Ce40    2.362   1_545 S
O53    C44     1.300   1_554 A
O55    Ce41    2.267   1_566 S
O56    Ce41    2.283   1_556 S
O56    C46     1.278   1_556 A
O58    Ce41    2.320   1_565 S
O59    C47     1.297   1_556 A
C60    N61     1.358   .     A
C60    N65     1.357   .     A
C60    C66     1.463   .     S
N61    N62     1.332   .     A
N62    C63     1.357   .     A
C63    N64     1.356   .     A
N64    N65     1.330   .     A
C66    N67     1.357   .     A
C66    N71     1.357   .     A
N67    N68     1.331   .     A
N68    C69     1.356   .     A
C69    N70     1.358   .     A
C69    C72     1.463   .     S
N70    N71     1.332   .     A
C72    N73     1.357   .     A
C72    N77     1.358   .     A
N73    N74     1.331   .     A
N74    C75     1.356   .     A
C75    N76     1.356   .     A
N76    N77     1.331   .     A
C78    N83     1.358   .     A
C78    C84     1.459   .     S
C78    N79     1.355   1_455 A
N79    N80     1.329   .     A
N79    C78     1.355   1_655 A
N80    C81     1.355   1_655 A
C81    N82     1.356   .     A
C81    N80     1.355   1_455 A
C81    C22     1.454   1_455 S
N82    N83     1.332   .     A
C84    N85     1.356   .     A
C84    N89     1.357   1_455 A
N85    N86     1.330   .     A
N86    C87     1.357   .     A
C87    C90     1.459   .     S
C87    N88     1.356   1_455 A
N88    N89     1.330   .     A
N88    C87     1.356   1_655 A
N89    C84     1.357   1_655 A
C90    N95     1.355   .     A
C90    N91     1.358   1_455 A
N91    N92     1.332   .     A
N91    C90     1.358   1_655 A
N92    C93     1.356   1_655 A
C93    N94     1.355   .     A
C93    N92     1.356   1_455 A
N94    N95     1.329   .     A
C96    N101    1.358   .     A
C96    C102    1.481   .     S
C96    N97     1.361   1_545 A
N97    N98     1.337   .     A
N97    C96     1.361   1_565 A
N98    C99     1.359   1_565 A
C99    N100    1.359   .     A
C99    N98     1.359   1_545 A
N100   N101    1.334   .     A
C102   N103    1.360   .     A
C102   N107    1.359   1_545 A
N103   N104    1.336   .     A
N104   C105    1.359   .     A
C105   N106    1.359   1_545 A
C105   C108    1.481   1_545 S
N106   N107    1.336   .     A
N106   C105    1.359   1_565 A
N107   C102    1.359   1_565 A
C108   N109    1.359   .     A
C108   C105    1.481   1_565 S
C108   N113    1.360   1_565 A
N109   N110    1.335   .     A
N110   C111    1.358   .     A
C111   N112    1.360   1_565 A
N112   N113    1.337   .     A
N112   C111    1.360   1_545 A
N113   C108    1.360   1_545 A
C114   N115    1.357   .     A
C114   C120    1.469   .     S
C114   N119    1.359   1_554 A
N115   N116    1.332   .     A
N116   C117    1.357   1_554 A
C117   N118    1.358   .     A
C117   N116    1.357   1_556 A
N118   N119    1.334   .     A
N119   C114    1.359   1_556 A
C120   N125    1.357   .     A
C120   N121    1.358   1_554 A
N121   N122    1.333   .     A
N121   C120    1.358   1_556 A
N122   C123    1.358   1_556 A
C123   N124    1.357   .     A
C123   C126    1.469   .     S
C123   N122    1.358   1_554 A
N124   N125    1.332   .     A
C126   N127    1.357   .     A
C126   N131    1.358   1_554 A
N127   N128    1.332   .     A
N128   C129    1.357   .     A
C129   N130    1.358   1_554 A
C129   C23     1.465   1_554 S
N130   N131    1.333   .     A
N130   C129    1.358   1_556 A
N131   C126    1.358   1_556 A
C132   N133    1.359   .     A
C132   N137    1.356   1_554 A
C132   C138    1.469   1_554 S
N133   N134    1.335   .     A
N134   C135    1.360   .     A
C135   N136    1.356   1_554 A
N136   N137    1.330   .     A
N136   C135    1.356   1_556 A
N137   C132    1.356   1_556 A
C138   N139    1.356   .     A
C138   C132    1.469   1_556 S
C138   N143    1.359   1_556 A
N139   N140    1.330   .     A
N140   C141    1.356   .     A
C141   C144    1.469   .     S
C141   N142    1.359   1_556 A
N142   N143    1.335   .     A
N142   C141    1.359   1_554 A
N143   C138    1.359   1_554 A
C144   N149    1.356   .     A
C144   N145    1.359   1_556 A
N145   N146    1.335   .     A
N145   C144    1.359   1_554 A
N146   C147    1.359   1_554 A
C147   N148    1.356   .     A
C147   N146    1.359   1_556 A
N148   N149    1.330   .     A
C150   N151    1.358   .     A
C150   C156    1.470   .     S
C150   N155    1.358   1_556 A
N151   N152    1.332   .     A
N152   C153    1.357   .     A
C153   N154    1.358   1_556 A
C153   C26     1.466   1_556 S
N154   N155    1.333   .     A
N154   C153    1.358   1_554 A
N155   C150    1.358   1_554 A
C156   N161    1.358   .     A
C156   N157    1.358   1_556 A
N157   N158    1.333   .     A
N157   C156    1.358   1_554 A
N158   C159    1.358   1_554 A
C159   N160    1.358   .     A
C159   C162    1.470   .     S
C159   N158    1.358   1_556 A
N160   N161    1.332   .     A
C162   N163    1.358   .     A
C162   N167    1.358   1_556 A
N163   N164    1.332   .     A
N164   C165    1.357   1_556 A
C165   N166    1.358   .     A
C165   N164    1.357   1_554 A
N166   N167    1.333   .     A
N167   C162    1.358   1_554 A
C168   N173    1.359   .     A
C168   C174    1.469   .     S
C168   N169    1.356   1_554 A
N169   N170    1.330   .     A
N169   C168    1.356   1_556 A
N170   C171    1.356   1_556 A
C171   N172    1.360   .     A
C171   N170    1.356   1_554 A
N172   N173    1.335   .     A
C174   N175    1.359   .     A
C174   N179    1.356   1_554 A
N175   N176    1.335   .     A
N176   C177    1.359   .     A
C177   N178    1.356   1_554 A
C177   C180    1.468   1_554 S
N178   N179    1.330   .     A
N178   C177    1.356   1_556 A
N179   C174    1.356   1_556 A
C180   N181    1.357   .     A
C180   C177    1.468   1_556 S
C180   N185    1.359   1_556 A
N181   N182    1.330   .     A
N182   C183    1.356   .     A
C183   N184    1.359   1_556 A
N184   N185    1.334   .     A
N184   C183    1.359   1_554 A
N185   C180    1.359   1_554 A
C186   N191    1.356   .     A
C186   C192    1.468   .     S
C186   N187    1.359   1_556 A
N187   N188    1.335   .     A
N187   C186    1.359   1_554 A
N188   C189    1.359   1_554 A
C189   N190    1.355   .     A
C189   N188    1.359   1_556 A
N190   N191    1.330   .     A
C192   N193    1.356   .     A
C192   N197    1.359   1_556 A
N193   N194    1.330   .     A
N194   C195    1.356   .     A
C195   C198    1.467   .     S
C195   N196    1.359   1_556 A
N196   N197    1.335   .     A
N196   C195    1.359   1_554 A
N197   C192    1.359   1_554 A
C198   N203    1.356   .     A
C198   N199    1.359   1_556 A
N199   N200    1.335   .     A
N199   C198    1.359   1_554 A
N200   C201    1.359   1_554 A
C201   N202    1.356   .     A
C201   N200    1.359   1_556 A
N202   N203    1.330   .     A
C204   N205    1.356   .     A
C204   C210    1.468   .     S
C204   N209    1.359   1_554 A
N205   N206    1.330   .     A
N206   C207    1.356   .     A
C207   N208    1.359   1_554 A
N208   N209    1.335   .     A
N208   C207    1.359   1_556 A
N209   C204    1.359   1_556 A
C210   N215    1.356   .     A
C210   N211    1.359   1_554 A
N211   N212    1.335   .     A
N211   C210    1.359   1_556 A
N212   C213    1.359   1_556 A
C213   N214    1.356   .     A
C213   C216    1.468   .     S
C213   N212    1.359   1_554 A
N214   N215    1.330   .     A
C216   N217    1.357   .     A
C216   N221    1.358   1_554 A
N217   N218    1.331   .     A
N218   C219    1.356   .     A
C219   N220    1.359   1_554 A
N220   N221    1.335   .     A
N220   C219    1.359   1_556 A
N221   C216    1.358   1_556 A
