data_kag+N248+E1
_audit_creation_date              2025-01-21
_audit_creation_method            'Materials Studio'
_symmetry_space_group_name_H-M    'P1'
_symmetry_Int_Tables_number       1
_symmetry_cell_setting            triclinic
loop_
_symmetry_equiv_pos_as_xyz
  x,y,z
_cell_length_a                    39.9945
_cell_length_b                    43.0336
_cell_length_c                    19.9523
_cell_angle_alpha                 85.9851
_cell_angle_beta                  91.8167
_cell_angle_gamma                 124.8034
loop_
_atom_site_label
_atom_site_type_symbol
_atom_site_fract_x
_atom_site_fract_y
_atom_site_fract_z
_atom_site_U_iso_or_equiv
_atom_site_adp_type
_atom_site_occupancy
O0     O     0.52237   0.53451   0.88696   0.00000  Uiso   1.00
Yb1    Yb    0.48418   0.45934   1.00615   0.00000  Uiso   1.00
C2     C     0.45955   0.39051   0.01547   0.00000  Uiso   1.00
Yb3    Yb    0.51983   0.54219  -0.00744   0.00000  Uiso   1.00
O4     O     0.49287   0.46984   0.89593   0.00000  Uiso   1.00
C5     C     0.44354   0.50000   0.02739   0.00000  Uiso   1.00
C6     C     0.50779   0.50219   0.86054   0.00000  Uiso   1.00
O7     O     0.50850   0.58390   0.96800   0.00000  Uiso   1.00
C8     C     0.54453   0.61099   0.98271   0.00000  Uiso   1.00
O9     O     0.53631   0.47336   0.94663   0.00000  Uiso   1.00
O10    O     0.54317   0.50958   0.02192   0.00000  Uiso   1.00
O11    O     0.48334   0.46728   0.11226   0.00000  Uiso   1.00
O12    O     0.56798   0.60089   0.00238   0.00000  Uiso   1.00
O13    O     0.51133   0.53170   0.10324   0.00000  Uiso   1.00
C14    C     0.56121   0.50191   0.97431   0.00000  Uiso   1.00
C15    C     0.49756   0.49952   0.13877   0.00000  Uiso   1.00
O16    O     0.49563   0.41760   0.02977   0.00000  Uiso   1.00
O17    O     0.43606   0.40062   0.99634   0.00000  Uiso   1.00
O18    O     0.46905   0.52829   0.05552   0.00000  Uiso   1.00
O19    O     0.46070   0.49217   0.97824   0.00000  Uiso   1.00
O20    O     0.97917   0.50921   0.89166   0.00000  Uiso   1.00
Yb21   Yb    0.02961   0.48981   0.00443   0.00000  Uiso   1.00
C22    C     0.08109   0.47293   0.01076   0.00000  Uiso   1.00
Yb23   Yb    0.97412   0.51086   0.99899   0.00000  Uiso   1.00
O24    O     0.02489   0.49285   0.89631   0.00000  Uiso   1.00
C25    C     0.92301   0.43846   0.00567   0.00000  Uiso   1.00
C26    C     0.00212   0.50125   0.86312   0.00000  Uiso   1.00
O27    O     0.91216   0.49360   0.99665   0.00000  Uiso   1.00
C28    C     0.92291   0.52804   0.99285   0.00000  Uiso   1.00
O29    O     0.09085   0.54012   1.00051   0.00000  Uiso   1.00
O30    O     0.03860   0.54458  -0.00186   0.00000  Uiso   1.00
O31    O     0.02460   0.49148   0.11172   0.00000  Uiso   1.00
O32    O     0.96134   0.55307  -0.00649   0.00000  Uiso   1.00
O33    O     0.97883   0.50777   0.10715   0.00000  Uiso   1.00
C34    C     0.08063   0.56224  -0.00245   0.00000  Uiso   1.00
C35    C     0.00161   0.49937   0.14031   0.00000  Uiso   1.00
O36    O     0.09164   0.50730   0.00669   0.00000  Uiso   1.00
O37    O     0.04267   0.44777   1.01018   0.00000  Uiso   1.00
O38    O     0.91287   0.46063   0.00282   0.00000  Uiso   1.00
O39    O     0.96505   0.45604   1.00516   0.00000  Uiso   1.00
O40    O     0.49195   0.02118   0.10448   0.00000  Uiso   1.00
Yb41   Yb    0.51547   0.97682   0.00536   0.00000  Uiso   1.00
C42    C     0.53788   0.93206   1.01043   0.00000  Uiso   1.00
Yb43   Yb    0.48759   0.02435   0.99607   0.00000  Uiso   1.00
O44    O     0.51374   0.98182   0.11210   0.00000  Uiso   1.00
C45    C     0.56467   0.07541  -0.01021   0.00000  Uiso   1.00
C46    C     0.50294   0.00160   0.13915   0.00000  Uiso   1.00
O47    O     0.50270   0.08082  -0.01114   0.00000  Uiso   1.00
C48    C     0.46518   0.06909  -0.00895   0.00000  Uiso   1.00
O49    O     0.46411   0.91864   0.01429   0.00000  Uiso   1.00
O50    O     0.45455   0.96439   1.00489   0.00000  Uiso   1.00
O51    O     0.51106   0.97998   0.89690   0.00000  Uiso   1.00
O52    O     0.43969   0.03305   0.99354   0.00000  Uiso   1.00
O53    O     0.48929   0.01935   0.88935   0.00000  Uiso   1.00
C54    C     0.43839   0.92575   0.01164   0.00000  Uiso   1.00
C55    C     0.50001   0.99952   0.86226   0.00000  Uiso   1.00
O56    O     0.50037   0.92035   1.01260   0.00000  Uiso   1.00
O57    O     0.56337   0.96810   0.00794   0.00000  Uiso   1.00
O58    O     0.53895   0.08253   0.98716   0.00000  Uiso   1.00
O59    O     0.54850   0.03677  -0.00348   0.00000  Uiso   1.00
C60    C     0.49892   0.50004   0.35454   0.00000  Uiso   1.00
C61    C     0.51169   0.53325   0.31447   0.00000  Uiso   1.00
C62    C     0.51078   0.53301   0.24444   0.00000  Uiso   1.00
C63    C     0.49704   0.49953   0.21292   0.00000  Uiso   1.00
C64    C     0.48370   0.46618   0.25304   0.00000  Uiso   1.00
C65    C     0.48461   0.46644   0.32302   0.00000  Uiso   1.00
C66    C     0.50108   0.50054   0.42891   0.00000  Uiso   1.00
C67    C     0.47001   0.46996   0.46933   0.00000  Uiso   1.00
C68    C     0.47232   0.47026   0.53930   0.00000  Uiso   1.00
C69    C     0.50574   0.50117   0.57048   0.00000  Uiso   1.00
C70    C     0.53682   0.53175   0.53004   0.00000  Uiso   1.00
C71    C     0.53451   0.53144   0.46007   0.00000  Uiso   1.00
C72    C     0.50780   0.50172   0.64486   0.00000  Uiso   1.00
C73    C     0.52230   0.53540   0.67627   0.00000  Uiso   1.00
C74    C     0.52291   0.53567   0.74623   0.00000  Uiso   1.00
C75    C     0.50899   0.50224   0.78646   0.00000  Uiso   1.00
C76    C     0.49516   0.46869   0.75509   0.00000  Uiso   1.00
C77    C     0.49462   0.46846   0.68509   0.00000  Uiso   1.00
H78    H     0.52225   0.55944   0.33726   0.00000  Uiso   1.00
H79    H     0.52110   0.55916   0.21509   0.00000  Uiso   1.00
H80    H     0.47305   0.43989   0.23048   0.00000  Uiso   1.00
H81    H     0.47495   0.44048   0.35244   0.00000  Uiso   1.00
H82    H     0.44356   0.44600   0.44687   0.00000  Uiso   1.00
H83    H     0.44753   0.44657   0.56899   0.00000  Uiso   1.00
H84    H     0.56323   0.55575   0.55248   0.00000  Uiso   1.00
H85    H     0.55927   0.55515   0.43035   0.00000  Uiso   1.00
H86    H     0.53228   0.56141   0.64677   0.00000  Uiso   1.00
H87    H     0.53369   0.56202   0.76868   0.00000  Uiso   1.00
H88    H     0.48442   0.44248   0.78455   0.00000  Uiso   1.00
H89    H     0.48396   0.44221   0.66244   0.00000  Uiso   1.00
C90    C     1.00257   0.50164   0.64696   0.00000  Uiso   1.00
C91    C    -0.02110   0.51076   0.67977   0.00000  Uiso   1.00
C92    C    -0.02117   0.51081   0.74986   0.00000  Uiso   1.00
C93    C     1.00239   0.50168   0.78876   0.00000  Uiso   1.00
C94    C     1.02619   0.49276   0.75586   0.00000  Uiso   1.00
C95    C     1.02638   0.49287   0.68588   0.00000  Uiso   1.00
C96    C     1.00214   0.50082   0.57255   0.00000  Uiso   1.00
C97    C     1.00279   0.47268   0.54203   0.00000  Uiso   1.00
C98    C     1.00241   0.47186   0.47210   0.00000  Uiso   1.00
C99    C     1.00130   0.49913   0.43096   0.00000  Uiso   1.00
C100   C     0.00069   0.52729   0.46149   0.00000  Uiso   1.00
C101   C     0.00106   0.52810   0.53140   0.00000  Uiso   1.00
C102   C     1.00086   0.49837   0.35654   0.00000  Uiso   1.00
C103   C    -0.02291   0.50723   0.31772   0.00000  Uiso   1.00
C104   C    -0.02259   0.50759   0.24771   0.00000  Uiso   1.00
C105   C     0.00129   0.49880   0.21469   0.00000  Uiso   1.00
C106   C     1.02481   0.48958   0.25348   0.00000  Uiso   1.00
C107   C     1.02460   0.48938   0.32360   0.00000  Uiso   1.00
H108   H    -0.04009   0.51729   0.65133   0.00000  Uiso   1.00
H109   H    -0.03985   0.51786   0.77348   0.00000  Uiso   1.00
H110   H     1.04480   0.48569   0.78414   0.00000  Uiso   1.00
H111   H     1.04555   0.48644   0.66218   0.00000  Uiso   1.00
H112   H     1.00297   0.45088   0.57225   0.00000  Uiso   1.00
H113   H     1.00230   0.44947   0.45029   0.00000  Uiso   1.00
H114   H     0.00057   0.54913   0.43128   0.00000  Uiso   1.00
H115   H     0.00119   0.55051   0.55320   0.00000  Uiso   1.00
H116   H    -0.04213   0.51357   0.34152   0.00000  Uiso   1.00
H117   H    -0.04115   0.51475   0.21951   0.00000  Uiso   1.00
H118   H     1.04357   0.48266   0.22975   0.00000  Uiso   1.00
H119   H     1.04355   0.48277   0.35196   0.00000  Uiso   1.00
C120   C     0.50121   0.00057   0.35541   0.00000  Uiso   1.00
C121   C     0.51064   0.97830   0.32371   0.00000  Uiso   1.00
C122   C     0.51144   0.97880   0.25361   0.00000  Uiso   1.00
C123   C     0.50276   0.00155   0.21355   0.00000  Uiso   1.00
C124   C     0.49330   0.02382   0.24540   0.00000  Uiso   1.00
C125   C     0.49253   0.02332   0.31550   0.00000  Uiso   1.00
C126   C     0.50085   0.00037   0.42983   0.00000  Uiso   1.00
C127   C     0.51860   0.03445   0.46176   0.00000  Uiso   1.00
C128   C     0.51867   0.03437   0.53185   0.00000  Uiso   1.00
C129   C     0.50095   1.00019   0.57154   0.00000  Uiso   1.00
C130   C     0.48318   0.96611   0.53961   0.00000  Uiso   1.00
C131   C     0.48308   0.96619   0.46952   0.00000  Uiso   1.00
C132   C     0.50077   1.00004   0.64598   0.00000  Uiso   1.00
C133   C     0.50966   0.97740   0.68577   0.00000  Uiso   1.00
C134   C     0.50924   0.97710   0.75588   0.00000  Uiso   1.00
C135   C     0.49994   0.99944   0.78785   0.00000  Uiso   1.00
C136   C     0.49102   0.02206   0.74790   0.00000  Uiso   1.00
C137   C     0.49146   0.02237   0.67780   0.00000  Uiso   1.00
H138   H     0.51796   0.96086   0.35319   0.00000  Uiso   1.00
H139   H     0.51882   0.96127   0.23091   0.00000  Uiso   1.00
H140   H     0.48640   0.04163   0.21621   0.00000  Uiso   1.00
H141   H     0.48464   0.04041   0.33855   0.00000  Uiso   1.00
H142   H     0.53307   0.06127   0.43249   0.00000  Uiso   1.00
H143   H     0.53315   0.06112   0.55505   0.00000  Uiso   1.00
H144   H     0.46877   0.93929   0.56889   0.00000  Uiso   1.00
H145   H     0.46858   0.93943   0.44630   0.00000  Uiso   1.00
H146   H     0.51744   0.96026   0.66260   0.00000  Uiso   1.00
H147   H     0.51630   0.95938   0.78498   0.00000  Uiso   1.00
H148   H     0.48371   0.03962   0.77069   0.00000  Uiso   1.00
H149   H     0.48397   0.03971   0.64842   0.00000  Uiso   1.00
C150   C     0.31641   0.45225   0.04717   0.00000  Uiso   1.00
C151   C     0.32969   0.43715   1.00299   0.00000  Uiso   1.00
C152   C     0.37097   0.45098   0.99928   0.00000  Uiso   1.00
C153   C     0.39950   0.47993   0.03988   0.00000  Uiso   1.00
C154   C     0.38587   0.49309   0.08714   0.00000  Uiso   1.00
C155   C     0.34490   0.47963   0.09044   0.00000  Uiso   1.00
C156   C     0.27443   0.44302   0.04381   0.00000  Uiso   1.00
C157   C     0.25499   0.44217   0.10216   0.00000  Uiso   1.00
C158   C     0.21975   0.44163   0.09758   0.00000  Uiso   1.00
C159   C     0.20274   0.44101   0.03481   0.00000  Uiso   1.00
C160   C     0.22011   0.43889   0.97689   0.00000  Uiso   1.00
C161   C     0.25575   0.43998   0.98129   0.00000  Uiso   1.00
C162   C     0.17077   0.44805   0.02912   0.00000  Uiso   1.00
C163   C     0.13110   0.41999   1.00940   0.00000  Uiso   1.00
C164   C     0.10141   0.42768   1.00415   0.00000  Uiso   1.00
C165   C     0.11149   0.46382   0.01684   0.00000  Uiso   1.00
C166   C     0.15138   0.49183   0.03578   0.00000  Uiso   1.00
C167   C     0.18061   0.48388   0.04254   0.00000  Uiso   1.00
H168   H     0.30843   0.41566   0.96968   0.00000  Uiso   1.00
H169   H     0.38081   0.44028   0.96265   0.00000  Uiso   1.00
H170   H     0.40728   0.51548   0.11898   0.00000  Uiso   1.00
H171   H     0.33609   0.49246   0.12420   0.00000  Uiso   1.00
H172   H     0.26805   0.44367   0.15119   0.00000  Uiso   1.00
H173   H     0.20667   0.44331   0.14275   0.00000  Uiso   1.00
H174   H     0.20761   0.43892   0.92793   0.00000  Uiso   1.00
H175   H     0.27009   0.44103   0.93528   0.00000  Uiso   1.00
H176   H     0.12313   0.39220   0.99869   0.00000  Uiso   1.00
H177   H     0.07082   0.40565   0.98946   0.00000  Uiso   1.00
H178   H     0.15991   0.51987   0.04599   0.00000  Uiso   1.00
H179   H     0.21118   0.50589   0.05747   0.00000  Uiso   1.00
C180   C     0.83369   0.31822   0.01224   0.00000  Uiso   1.00
C181   C     0.82421   0.34233   0.03582   0.00000  Uiso   1.00
C182   C     0.85346   0.38142   0.03396   0.00000  Uiso   1.00
C183   C     0.89293   0.39705   0.00968   0.00000  Uiso   1.00
C184   C     0.90289   0.37290   0.98806   0.00000  Uiso   1.00
C185   C     0.87327   0.33373   0.98851   0.00000  Uiso   1.00
C186   C     0.80124   0.27741   0.00868   0.00000  Uiso   1.00
C187   C     0.79101   0.26087   0.94655   0.00000  Uiso   1.00
C188   C     0.75585   0.22433   0.94063   0.00000  Uiso   1.00
C189   C     0.73107   0.20346   0.99710   0.00000  Uiso   1.00
C190   C     0.74283   0.21905   0.06006   0.00000  Uiso   1.00
C191   C     0.77739   0.25595   0.06567   0.00000  Uiso   1.00
C192   C     0.69014   0.16838   0.98898   0.00000  Uiso   1.00
C193   C     0.67708   0.13478   0.02805   0.00000  Uiso   1.00
C194   C     0.63648   0.10332   0.02549   0.00000  Uiso   1.00
C195   C     0.60839   0.10575   0.98576   0.00000  Uiso   1.00
C196   C     0.62175   0.13896   0.94556   0.00000  Uiso   1.00
C197   C     0.66239   0.16981   0.94644   0.00000  Uiso   1.00
H198   H     0.79375   0.33098   0.05372   0.00000  Uiso   1.00
H199   H     0.84516   0.39949   0.05123   0.00000  Uiso   1.00
H200   H     0.93316   0.38442   0.96905   0.00000  Uiso   1.00
H201   H     0.88108   0.31553   0.97002   0.00000  Uiso   1.00
H202   H     0.80882   0.27708   0.90193   0.00000  Uiso   1.00
H203   H     0.74707   0.21288   0.89155   0.00000  Uiso   1.00
H204   H     0.72385   0.20358   0.10406   0.00000  Uiso   1.00
H205   H     0.78474   0.26829   0.11399   0.00000  Uiso   1.00
H206   H     0.69806   0.13324   0.06139   0.00000  Uiso   1.00
H207   H     0.62658   0.07791   0.05703   0.00000  Uiso   1.00
H208   H     0.60050   0.14128   0.91436   0.00000  Uiso   1.00
H209   H     0.67172   0.19553   0.91639   0.00000  Uiso   1.00
C210   C     0.83375   0.55356   0.97588   0.00000  Uiso   1.00
C211   C     0.82435   0.51846   0.95826   0.00000  Uiso   1.00
C212   C     0.85345   0.51032   0.96436   0.00000  Uiso   1.00
C213   C     0.89274   0.53741   0.98700   0.00000  Uiso   1.00
C214   C     0.90242   0.57284   0.00388   0.00000  Uiso   1.00
C215   C     0.87285   0.58070  -0.00085   0.00000  Uiso   1.00
C216   C     0.80185   0.56071   0.97105   0.00000  Uiso   1.00
C217   C     0.78337   0.56085   0.02941   0.00000  Uiso   1.00
C218   C     0.74779   0.55989   0.02507   0.00000  Uiso   1.00
C219   C     0.73035   0.55897   0.96217   0.00000  Uiso   1.00
C220   C     0.75088   0.56174   0.90368   0.00000  Uiso   1.00
C221   C     0.78605   0.56215   0.90816   0.00000  Uiso   1.00
C222   C     0.68849   0.54995   0.95807   0.00000  Uiso   1.00
C223   C     0.66074   0.52393   0.91235   0.00000  Uiso   1.00
C224   C     0.61975   0.51047   0.91462   0.00000  Uiso   1.00
C225   C     0.60539   0.52229   0.96323   0.00000  Uiso   1.00
C226   C     0.63324   0.54996   0.00639   0.00000  Uiso   1.00
C227   C     0.67454   0.56377   0.00376   0.00000  Uiso   1.00
H228   H     0.79420   0.49714   0.94063   0.00000  Uiso   1.00
H229   H     0.84530   0.48288   0.95077   0.00000  Uiso   1.00
H230   H     0.93253   0.59410   0.02164   0.00000  Uiso   1.00
H231   H     0.88045   0.60789   0.01314   0.00000  Uiso   1.00
H232   H     0.79492   0.55920   0.07841   0.00000  Uiso   1.00
H233   H     0.73254   0.55726   0.07112   0.00000  Uiso   1.00
H234   H     0.73872   0.56182   0.85447   0.00000  Uiso   1.00
H235   H     0.80003   0.56204   0.86265   0.00000  Uiso   1.00
H236   H     0.67009   0.51204   0.87742   0.00000  Uiso   1.00
H237   H     0.59887   0.48915   0.88071   0.00000  Uiso   1.00
H238   H     0.62280   0.55947   0.04433   0.00000  Uiso   1.00
H239   H     0.69526   0.58421   0.03900   0.00000  Uiso   1.00
C240   C     0.31297   0.83262   0.01276   0.00000  Uiso   1.00
C241   C     0.32596   0.86610   0.97334   0.00000  Uiso   1.00
C242   C     0.36654   0.89763   0.97575   0.00000  Uiso   1.00
C243   C     0.39467   0.89539   0.01577   0.00000  Uiso   1.00
C244   C     0.38136   0.86232   0.05635   0.00000  Uiso   1.00
C245   C     0.34076   0.83140   0.05552   0.00000  Uiso   1.00
C246   C     0.27209   0.79744   0.00484   0.00000  Uiso   1.00
C247   C     0.24744   0.77659   0.06145   0.00000  Uiso   1.00
C248   C     0.21242   0.73994   0.05579   0.00000  Uiso   1.00
C249   C     0.20212   0.72332   0.99374   0.00000  Uiso   1.00
C250   C     0.22582   0.74474   0.93662   0.00000  Uiso   1.00
C251   C     0.26031   0.78171   0.94199   0.00000  Uiso   1.00
C252   C     0.16973   0.68249   0.99035   0.00000  Uiso   1.00
C253   C     0.17922   0.65842   0.96666   0.00000  Uiso   1.00
C254   C     0.15004   0.61932   0.96868   0.00000  Uiso   1.00
C255   C     0.11062   0.60365   0.99325   0.00000  Uiso   1.00
C256   C     0.10061   0.62776   0.01484   0.00000  Uiso   1.00
C257   C     0.13017   0.66695   0.01426   0.00000  Uiso   1.00
H258   H     0.30495   0.86750   0.93984   0.00000  Uiso   1.00
H259   H     0.37640   0.92293   0.94392   0.00000  Uiso   1.00
H260   H     0.40263   0.86015   0.08778   0.00000  Uiso   1.00
H261   H     0.33149   0.80577   0.08585   0.00000  Uiso   1.00
H262   H     0.25623   0.78816   0.11043   0.00000  Uiso   1.00
H263   H     0.19477   0.72373   0.10055   0.00000  Uiso   1.00
H264   H     0.21841   0.73233   0.88836   0.00000  Uiso   1.00
H265   H     0.27923   0.79711   0.89790   0.00000  Uiso   1.00
H266   H     0.20966   0.66980   0.94854   0.00000  Uiso   1.00
H267   H     0.15834   0.60126   0.95132   0.00000  Uiso   1.00
H268   H     0.07035   0.61621   0.03395   0.00000  Uiso   1.00
H269   H     0.12234   0.68512   0.03279   0.00000  Uiso   1.00
C270   C     0.57063   0.85371   0.99568   0.00000  Uiso   1.00
C271   C     0.53044   0.84248   0.98548   0.00000  Uiso   1.00
C272   C     0.52000   0.86791   0.99206   0.00000  Uiso   1.00
C273   C     0.54963   0.90533   1.00809   0.00000  Uiso   1.00
C274   C     0.58991   0.91664   0.01907   0.00000  Uiso   1.00
C275   C     0.60027   0.89077   0.01357   0.00000  Uiso   1.00
C276   C     0.58063   0.82615  -0.01328   0.00000  Uiso   1.00
C277   C     0.59474   0.81400   0.04067   0.00000  Uiso   1.00
C278   C     0.59606   0.78239   0.03560   0.00000  Uiso   1.00
C279   C     0.58333   0.76270  -0.02357   0.00000  Uiso   1.00
C280   C     0.57256   0.77705   0.92084   0.00000  Uiso   1.00
C281   C     0.57095   0.80828   0.92610   0.00000  Uiso   1.00
C282   C     0.57578   0.72475  -0.02492   0.00000  Uiso   1.00
C283   C     0.53913   0.69516   0.94828   0.00000  Uiso   1.00
C284   C     0.52982   0.65865   0.94973   0.00000  Uiso   1.00
C285   C     0.55688   0.65064  -0.02201   0.00000  Uiso   1.00
C286   C     0.59402   0.68022   0.00382   0.00000  Uiso   1.00
C287   C     0.60328   0.71703   0.00284   0.00000  Uiso   1.00
H288   H     0.50705   0.81387   0.97234   0.00000  Uiso   1.00
H289   H     0.48878   0.85848   0.98307   0.00000  Uiso   1.00
H290   H     0.61325   0.94535   0.03160   0.00000  Uiso   1.00
H291   H     0.63143   0.89983   0.02177   0.00000  Uiso   1.00
H292   H     0.60205   0.82734   0.08799   0.00000  Uiso   1.00
H293   H     0.60432   0.77186   0.07929   0.00000  Uiso   1.00
H294   H     0.56336   0.76288   0.87424   0.00000  Uiso   1.00
H295   H     0.56033   0.81749   0.88375   0.00000  Uiso   1.00
H296   H     0.51693   0.69998   0.92789   0.00000  Uiso   1.00
H297   H     0.50091   0.63649   0.92958   0.00000  Uiso   1.00
H298   H     0.61541   0.67475   0.02587   0.00000  Uiso   1.00
H299   H     0.63175   0.73937   0.02383   0.00000  Uiso   1.00
C300   C     0.42771   0.27656   0.02445   0.00000  Uiso   1.00
C301   C     0.40023   0.28433   0.99679   0.00000  Uiso   1.00
C302   C     0.40980   0.32126   0.99506   0.00000  Uiso   1.00
C303   C     0.44713   0.35086   0.02029   0.00000  Uiso   1.00
C304   C     0.47418   0.34281   0.04847   0.00000  Uiso   1.00
C305   C     0.46464   0.30622   0.05043   0.00000  Uiso   1.00
C306   C     0.41984   0.23848   0.02383   0.00000  Uiso   1.00
C307   C     0.43084   0.22441   0.07954   0.00000  Uiso   1.00
C308   C     0.43238   0.19311   0.07468   0.00000  Uiso   1.00
C309   C     0.42223   0.17484   0.01446   0.00000  Uiso   1.00
C310   C     0.40778   0.18664   0.96054   0.00000  Uiso   1.00
C311   C     0.40669   0.21841   0.96511   0.00000  Uiso   1.00
C312   C     0.43228   0.14731   0.00563   0.00000  Uiso   1.00
C313   C     0.40257   0.11009   0.98861   0.00000  Uiso   1.00
C314   C     0.41300   0.08429   0.98310   0.00000  Uiso   1.00
C315   C     0.45339   0.09578  -0.00664   0.00000  Uiso   1.00
C316   C     0.48308   0.13333   0.00859   0.00000  Uiso   1.00
C317   C     0.47259   0.15875   0.01497   0.00000  Uiso   1.00
H318   H     0.37153   0.26192   0.97652   0.00000  Uiso   1.00
H319   H     0.38846   0.32678   0.97298   0.00000  Uiso   1.00
H320   H     0.50320   0.36498   0.06827   0.00000  Uiso   1.00
H321   H     0.48685   0.30135   0.07065   0.00000  Uiso   1.00
H322   H     0.44034   0.23888   0.12583   0.00000  Uiso   1.00
H323   H     0.44334   0.18420   0.11695   0.00000  Uiso   1.00
H324   H     0.40006   0.17294   0.91356   0.00000  Uiso   1.00
H325   H     0.39831   0.22877   0.92130   0.00000  Uiso   1.00
H326   H     0.37131   0.10089   0.98110   0.00000  Uiso   1.00
H327   H     0.38963   0.05548   0.97113   0.00000  Uiso   1.00
H328   H     0.51439   0.14290   0.01709   0.00000  Uiso   1.00
H329   H     0.49604   0.18751   0.02727   0.00000  Uiso   1.00
loop_
_geom_bond_atom_site_label_1
_geom_bond_atom_site_label_2
_geom_bond_distance
_geom_bond_site_symmetry_2
_ccdc_geom_bond_type
O0     C6      1.308   .     A
O0     Yb3     2.170   1_556 S
Yb1    O4      2.212   .     S
Yb1    O9      2.178   .     S
Yb1    O17     2.150   .     S
Yb1    O19     2.135   .     S
Yb1    Yb3     2.984   1_556 S
Yb1    O10     2.137   1_556 S
Yb1    O11     2.172   1_556 S
Yb1    O16     2.113   1_556 S
C2     O16     1.274   .     A
C2     C303    1.476   .     S
C2     O17     1.280   1_554 A
Yb3    O10     2.128   .     S
Yb3    O12     2.149   .     S
Yb3    O13     2.220   .     S
Yb3    O18     2.175   .     S
Yb3    O0      2.170   1_554 S
Yb3    Yb1     2.984   1_554 S
Yb3    O7      2.112   1_554 S
Yb3    O19     2.131   1_554 S
O4     C6      1.317   .     A
C5     O18     1.216   .     D
C5     C153    1.474   .     S
C5     O19     1.378   1_554 S
C6     C75     1.480   .     S
O7     C8      1.275   .     A
O7     Yb3     2.112   1_556 S
C8     O12     1.281   1_556 A
C8     C285    1.477   1_556 S
O9     C14     1.212   .     D
O10    Yb1     2.137   1_554 S
O10    C14     1.375   1_554 S
O11    C15     1.308   .     A
O11    Yb1     2.172   1_554 S
O12    C8      1.281   1_554 A
O13    C15     1.319   .     A
C14    C225    1.473   .     S
C14    O10     1.375   1_556 S
C15    C63     1.480   .     S
O16    Yb1     2.113   1_554 S
O17    C2      1.280   1_556 A
O19    Yb3     2.131   1_556 S
O19    C5      1.378   1_556 S
O20    Yb23    2.167   .     S
O20    C26     1.305   1_655 A
Yb21   O30     2.167   .     S
Yb21   O31     2.166   .     S
Yb21   O36     2.142   .     S
Yb21   Yb23    2.833   1_454 S
Yb21   O24     2.161   1_554 S
Yb21   O29     2.151   1_554 S
Yb21   O37     2.146   1_554 S
Yb21   O39     2.120   1_454 S
C22    O36     1.283   .     A
C22    C165    1.475   .     S
C22    O37     1.278   1_554 A
Yb23   O27     2.143   .     S
Yb23   O39     2.168   .     S
Yb23   Yb21    2.833   1_656 S
Yb23   O30     2.117   1_656 S
Yb23   O32     2.145   1_556 S
Yb23   O33     2.162   1_556 S
Yb23   O38     2.150   1_556 S
O24    C26     1.305   .     A
O24    Yb21    2.161   1_556 S
C25    O38     1.229   .     D
C25    C183    1.472   .     S
C25    O39     1.396   1_554 S
C26    O20     1.305   1_455 A
C26    C93     1.483   1_455 S
O27    C28     1.283   .     A
C28    C213    1.474   .     S
C28    O32     1.278   1_556 A
O29    Yb21    2.151   1_556 S
O29    C34     1.229   1_556 D
O30    C34     1.395   .     S
O30    Yb23    2.117   1_454 S
O31    C35     1.305   .     A
O32    Yb23    2.145   1_554 S
O32    C28     1.278   1_554 A
O33    Yb23    2.162   1_554 S
O33    C35     1.305   1_655 A
C34    O29     1.229   1_554 D
C34    C255    1.472   1_554 S
C35    C105    1.483   .     S
C35    O33     1.305   1_455 A
O37    Yb21    2.146   1_556 S
O37    C22     1.278   1_556 A
O38    Yb23    2.150   1_554 S
O39    Yb21    2.120   1_656 S
O39    C25     1.396   1_556 S
O40    C46     1.305   .     A
O40    Yb43    2.166   1_554 S
Yb41   O44     2.163   .     S
Yb41   O49     2.147   .     S
Yb41   O57     2.151   .     S
Yb41   Yb43    2.828   1_564 S
Yb41   O50     2.176   1_554 S
Yb41   O51     2.167   1_554 S
Yb41   O56     2.138   1_554 S
Yb41   O59     2.120   1_565 S
C42    O56     1.282   .     A
C42    C273    1.474   .     S
C42    O57     1.279   1_556 A
Yb43   O52     2.150   .     S
Yb43   O53     2.162   .     S
Yb43   O58     2.147   .     S
Yb43   O40     2.166   1_556 S
Yb43   Yb41    2.828   1_546 S
Yb43   O47     2.138   1_556 S
Yb43   O50     2.120   1_545 S
Yb43   O59     2.176   1_556 S
O44    C46     1.305   1_565 A
C45    O59     1.396   .     S
C45    O58     1.228   1_554 D
C45    C195    1.469   1_554 S
C46    C123    1.484   .     S
C46    O44     1.305   1_545 A
O47    C48     1.282   .     A
O47    Yb43    2.138   1_554 S
C48    C315    1.473   .     S
C48    O52     1.279   1_554 A
O49    C54     1.228   .     D
O50    Yb41    2.176   1_556 S
O50    Yb43    2.120   1_565 S
O50    C54     1.396   1_556 S
O51    C55     1.305   .     A
O51    Yb41    2.167   1_556 S
O52    C48     1.279   1_556 A
O53    C55     1.304   1_545 A
C54    C243    1.469   .     S
C54    O50     1.396   1_554 S
C55    C135    1.485   .     S
C55    O53     1.304   1_565 A
O56    Yb41    2.138   1_556 S
O57    C42     1.279   1_554 A
O58    C45     1.228   1_556 D
O59    Yb41    2.120   1_545 S
O59    Yb43    2.176   1_554 S
C60    C61     1.405   .     A
C60    C65     1.405   .     A
C60    C66     1.484   .     S
C61    C62     1.397   .     A
C61    H78     1.082   .     S
C62    C63     1.405   .     A
C62    H79     1.083   .     S
C63    C64     1.406   .     A
C64    C65     1.396   .     A
C64    H80     1.083   .     S
C65    H81     1.083   .     S
C66    C67     1.405   .     A
C66    C71     1.406   .     A
C67    C68     1.397   .     A
C67    H82     1.083   .     S
C68    C69     1.406   .     A
C68    H83     1.083   .     S
C69    C70     1.406   .     A
C69    C72     1.485   .     S
C70    C71     1.397   .     A
C70    H84     1.083   .     S
C71    H85     1.083   .     S
C72    C73     1.405   .     A
C72    C77     1.406   .     A
C73    C74     1.396   .     A
C73    H86     1.082   .     S
C74    C75     1.406   .     A
C74    H87     1.083   .     S
C75    C76     1.405   .     A
C76    C77     1.397   .     A
C76    H88     1.083   .     S
C77    H89     1.082   .     S
C90    C95     1.405   .     A
C90    C96     1.487   .     S
C90    C91     1.406   1_655 A
C91    C92     1.399   .     A
C91    H108    1.083   .     S
C91    C90     1.406   1_455 A
C92    H109    1.083   .     S
C92    C93     1.406   1_455 A
C93    C94     1.406   .     A
C93    C92     1.406   1_655 A
C93    C26     1.483   1_655 S
C94    C95     1.396   .     A
C94    H110    1.083   .     S
C95    H111    1.082   .     S
C96    C97     1.407   .     A
C96    C101    1.405   1_655 A
C97    C98     1.398   .     A
C97    H112    1.083   .     S
C98    C99     1.405   .     A
C98    H113    1.083   .     S
C99    C102    1.487   .     S
C99    C100    1.406   1_655 A
C100   C101    1.397   .     A
C100   H114    1.083   .     S
C100   C99     1.406   1_455 A
C101   H115    1.083   .     S
C101   C96     1.405   1_455 A
C102   C107    1.406   .     A
C102   C103    1.405   1_655 A
C103   C104    1.396   .     A
C103   H116    1.082   .     S
C103   C102    1.405   1_455 A
C104   C105    1.406   .     A
C104   H117    1.083   .     S
C105   C106    1.407   1_455 A
C106   C107    1.399   .     A
C106   H118    1.083   .     S
C106   C105    1.407   1_655 A
C107   H119    1.083   .     S
C120   C125    1.405   .     A
C120   C126    1.485   .     S
C120   C121    1.405   1_545 A
C121   C122    1.398   .     A
C121   H138    1.083   .     S
C121   C120    1.405   1_565 A
C122   H139    1.083   .     S
C122   C123    1.407   1_565 A
C123   C124    1.407   .     A
C123   C122    1.407   1_545 A
C124   C125    1.398   .     A
C124   H140    1.083   .     S
C125   H141    1.083   .     S
C126   C127    1.405   .     A
C126   C131    1.405   1_545 A
C127   C128    1.398   .     A
C127   H142    1.083   .     S
C128   H143    1.083   .     S
C128   C129    1.405   1_545 A
C129   C130    1.405   .     A
C129   C132    1.485   .     S
C129   C128    1.405   1_565 A
C130   C131    1.398   .     A
C130   H144    1.083   .     S
C131   H145    1.083   .     S
C131   C126    1.405   1_565 A
C132   C133    1.405   .     A
C132   C137    1.405   1_565 A
C133   C134    1.399   .     A
C133   H146    1.083   .     S
C134   C135    1.407   .     A
C134   H147    1.083   .     S
C135   C136    1.407   1_565 A
C136   C137    1.398   .     A
C136   H148    1.083   .     S
C136   C135    1.407   1_545 A
C137   H149    1.083   .     S
C137   C132    1.405   1_545 A
C150   C155    1.407   .     A
C150   C156    1.489   .     S
C150   C151    1.408   1_554 A
C151   C152    1.402   .     A
C151   H168    1.083   .     S
C151   C150    1.408   1_556 A
C152   H169    1.083   .     S
C152   C153    1.404   1_556 A
C153   C154    1.403   .     A
C153   C152    1.404   1_554 A
C154   C155    1.394   .     A
C154   H170    1.084   .     S
C155   H171    1.083   .     S
C156   C157    1.407   .     A
C156   C161    1.409   1_554 A
C157   C158    1.396   .     A
C157   H172    1.082   .     S
C158   C159    1.401   .     A
C158   H173    1.083   .     S
C159   C162    1.473   .     S
C159   C160    1.401   1_554 A
C160   C161    1.400   .     A
C160   H174    1.083   .     S
C160   C159    1.401   1_556 A
C161   H175    1.082   .     S
C161   C156    1.409   1_556 A
C162   C167    1.401   .     A
C162   C163    1.403   1_554 A
C163   C164    1.403   .     A
C163   H176    1.083   .     S
C163   C162    1.403   1_556 A
C164   H177    1.083   .     S
C164   C165    1.406   1_556 A
C165   C166    1.404   .     A
C165   C164    1.406   1_554 A
C166   C167    1.394   .     A
C166   H178    1.083   .     S
C167   H179    1.084   .     S
C180   C181    1.403   .     A
C180   C186    1.478   .     S
C180   C185    1.405   1_554 A
C181   C182    1.395   .     A
C181   H198    1.084   .     S
C182   C183    1.404   .     A
C182   H199    1.083   .     S
C183   C184    1.404   1_554 A
C184   C185    1.401   .     A
C184   H200    1.083   .     S
C184   C183    1.404   1_556 A
C185   H201    1.083   .     S
C185   C180    1.405   1_556 A
C186   C191    1.404   .     A
C186   C187    1.403   1_554 A
C187   C188    1.398   .     A
C187   H202    1.083   .     S
C187   C186    1.403   1_556 A
C188   C189    1.404   .     A
C188   H203    1.083   .     S
C189   C192    1.477   .     S
C189   C190    1.404   1_556 A
C190   C191    1.398   .     A
C190   H204    1.083   .     S
C190   C189    1.404   1_554 A
C191   H205    1.083   .     S
C192   C197    1.403   .     A
C192   C193    1.406   1_556 A
C193   C194    1.402   .     A
C193   H206    1.083   .     S
C193   C192    1.406   1_554 A
C194   H207    1.083   .     S
C194   C195    1.403   1_554 A
C195   C196    1.402   .     A
C195   C194    1.403   1_556 A
C195   C45     1.469   1_556 S
C196   C197    1.394   .     A
C196   H208    1.084   .     S
C197   H209    1.083   .     S
C210   C211    1.401   .     A
C210   C216    1.472   .     S
C210   C215    1.403   1_556 A
C211   C212    1.394   .     A
C211   H228    1.084   .     S
C212   C213    1.404   .     A
C212   H229    1.084   .     S
C213   C214    1.406   1_556 A
C214   C215    1.403   .     A
C214   H230    1.083   .     S
C214   C213    1.406   1_554 A
C215   H231    1.083   .     S
C215   C210    1.403   1_554 A
C216   C221    1.401   .     A
C216   C217    1.401   1_556 A
C217   C218    1.399   .     A
C217   H232    1.083   .     S
C217   C216    1.401   1_554 A
C218   H233    1.082   .     S
C218   C219    1.408   1_554 A
C219   C220    1.407   .     A
C219   C222    1.488   .     S
C219   C218    1.408   1_556 A
C220   C221    1.396   .     A
C220   H234    1.083   .     S
C221   H235    1.083   .     S
C222   C223    1.407   .     A
C222   C227    1.408   1_556 A
C223   C224    1.394   .     A
C223   H236    1.083   .     S
C224   C225    1.402   .     A
C224   H237    1.083   .     S
C225   C226    1.403   1_556 A
C226   C227    1.402   .     A
C226   H238    1.083   .     S
C226   C225    1.403   1_554 A
C227   H239    1.083   .     S
C227   C222    1.408   1_554 A
C240   C245    1.402   .     A
C240   C246    1.477   .     S
C240   C241    1.406   1_554 A
C241   C242    1.403   .     A
C241   H258    1.083   .     S
C241   C240    1.406   1_556 A
C242   H259    1.083   .     S
C242   C243    1.403   1_556 A
C243   C244    1.402   .     A
C243   C242    1.403   1_554 A
C244   C245    1.394   .     A
C244   H260    1.084   .     S
C245   H261    1.083   .     S
C246   C247    1.404   .     A
C246   C251    1.404   1_554 A
C247   C248    1.398   .     A
C247   H262    1.083   .     S
C248   H263    1.083   .     S
C248   C249    1.403   1_554 A
C249   C250    1.404   .     A
C249   C252    1.477   .     S
C249   C248    1.403   1_556 A
C250   C251    1.398   .     A
C250   H264    1.083   .     S
C251   H265    1.083   .     S
C251   C246    1.404   1_556 A
C252   C253    1.403   .     A
C252   C257    1.405   1_556 A
C253   C254    1.395   .     A
C253   H266    1.084   .     S
C254   C255    1.403   .     A
C254   H267    1.083   .     S
C255   C256    1.404   1_556 A
C255   C34     1.472   1_556 S
C256   C257    1.401   .     A
C256   H268    1.083   .     S
C256   C255    1.404   1_554 A
C257   H269    1.083   .     S
C257   C252    1.405   1_554 A
C270   C271    1.402   .     A
C270   C275    1.404   1_556 A
C270   C276    1.475   1_556 S
C271   C272    1.391   .     A
C271   H288    1.084   .     S
C272   C273    1.403   .     A
C272   H289    1.083   .     S
C273   C274    1.406   1_556 A
C274   C275    1.403   .     A
C274   H290    1.083   .     S
C274   C273    1.406   1_554 A
C275   H291    1.083   .     S
C275   C270    1.404   1_554 A
C276   C277    1.403   .     A
C276   C270    1.475   1_554 S
C276   C281    1.402   1_554 A
C277   C278    1.402   .     A
C277   H292    1.083   .     S
C278   C279    1.407   .     A
C278   H293    1.083   .     S
C279   C282    1.484   .     S
C279   C280    1.405   1_554 A
C280   C281    1.393   .     A
C280   H294    1.083   .     S
C280   C279    1.405   1_556 A
C281   H295    1.084   .     S
C281   C276    1.402   1_556 A
C282   C287    1.407   .     A
C282   C283    1.404   1_554 A
C283   C284    1.391   .     A
C283   H296    1.083   .     S
C283   C282    1.404   1_556 A
C284   H297    1.083   .     S
C284   C285    1.403   1_556 A
C285   C286    1.406   .     A
C285   C284    1.403   1_554 A
C285   C8      1.477   1_554 S
C286   C287    1.405   .     A
C286   H298    1.083   .     S
C287   H299    1.083   .     S
C300   C305    1.404   .     A
C300   C306    1.483   .     S
C300   C301    1.407   1_554 A
C301   C302    1.404   .     A
C301   H318    1.083   .     S
C301   C300    1.407   1_556 A
C302   H319    1.083   .     S
C302   C303    1.406   1_556 A
C303   C304    1.403   .     A
C303   C302    1.406   1_554 A
C304   C305    1.390   .     A
C304   H320    1.083   .     S
C305   H321    1.083   .     S
C306   C307    1.405   .     A
C306   C311    1.407   1_554 A
C307   C308    1.393   .     A
C307   H322    1.083   .     S
C308   C309    1.401   .     A
C308   H323    1.083   .     S
C309   C312    1.474   .     S
C309   C310    1.403   1_554 A
C310   C311    1.402   .     A
C310   H324    1.083   .     S
C310   C309    1.403   1_556 A
C311   H325    1.083   .     S
C311   C306    1.407   1_556 A
C312   C317    1.402   .     A
C312   C313    1.404   1_554 A
C313   C314    1.403   .     A
C313   H326    1.083   .     S
C313   C312    1.404   1_556 A
C314   H327    1.083   .     S
C314   C315    1.406   1_556 A
C315   C316    1.403   .     A
C315   C314    1.406   1_554 A
C316   C317    1.391   .     A
C316   H328    1.083   .     S
C317   H329    1.084   .     S
