data_kag+N123+E35
_audit_creation_date              2025-01-21
_audit_creation_method            'Materials Studio'
_symmetry_space_group_name_H-M    'P1'
_symmetry_Int_Tables_number       1
_symmetry_cell_setting            triclinic
loop_
_symmetry_equiv_pos_as_xyz
  x,y,z
_cell_length_a                    35.0585
_cell_length_b                    33.4156
_cell_length_c                    15.2150
_cell_angle_alpha                 90.2879
_cell_angle_beta                  90.0106
_cell_angle_gamma                 125.1317
loop_
_atom_site_label
_atom_site_type_symbol
_atom_site_fract_x
_atom_site_fract_y
_atom_site_fract_z
_atom_site_U_iso_or_equiv
_atom_site_adp_type
_atom_site_occupancy
Ce0    Ce    0.55745   0.52560  -0.01350   0.00000  Uiso   1.00
Ce1    Ce    0.45855   0.48276   0.99165   0.00000  Uiso   1.00
C2     C     0.47539   0.49382   0.16569   0.00000  Uiso   1.00
C3     C     0.64877   0.56182  -0.02170   0.00000  Uiso   1.00
C4     C     0.52833   0.60121   0.97984   0.00000  Uiso   1.00
C5     C     0.53984   0.51420   0.81253   0.00000  Uiso   1.00
C6     C     0.36727   0.44691   1.00287   0.00000  Uiso   1.00
C7     C     0.48799   0.40735   0.00005   0.00000  Uiso   1.00
O8     O     0.43668   0.47694   0.13427   0.00000  Uiso   1.00
O9     O     0.51036   0.50760   0.10352   0.00000  Uiso   1.00
O10    O     0.62785   0.55672   0.05049   0.00000  Uiso   1.00
O11    O     0.62345   0.55013   0.90920   0.00000  Uiso   1.00
O12    O     0.56335   0.59780   0.97948   0.00000  Uiso   1.00
O13    O     0.48516   0.56379   0.98444   0.00000  Uiso   1.00
O14    O     0.57898   0.53166   0.84243   0.00000  Uiso   1.00
O15    O     0.50560   0.50057   0.87584   0.00000  Uiso   1.00
O16    O     0.38759   0.45261   0.92953   0.00000  Uiso   1.00
O17    O     0.39314   0.45770   0.07081   0.00000  Uiso   1.00
O18    O     0.45273   0.41041  -0.00086   0.00000  Uiso   1.00
O19    O     0.53105   0.44486  -0.00542   0.00000  Uiso   1.00
Ce20   Ce    0.03214   0.48025   0.00131   0.00000  Uiso   1.00
Ce21   Ce    0.97989   0.52263  -0.00415   0.00000  Uiso   1.00
C22    C     0.98797   0.51457   0.82192   0.00000  Uiso   1.00
C23    C     0.08449   0.44481   1.01061   0.00000  Uiso   1.00
C24    C     0.91988   0.40397  -0.00108   0.00000  Uiso   1.00
C25    C     0.02461   0.48780   0.17513   0.00000  Uiso   1.00
C26    C     0.92799   0.55861  -0.01150   0.00000  Uiso   1.00
C27    C     0.09203   0.59899   0.99914   0.00000  Uiso   1.00
O28    O     0.96766   0.53170   0.85164   0.00000  Uiso   1.00
O29    O     1.00641   0.50005   0.88538   0.00000  Uiso   1.00
O30    O     0.07116   0.45190   0.93773   0.00000  Uiso   1.00
O31    O     0.06941   0.45388   0.07919   0.00000  Uiso   1.00
O32    O     0.95873   0.40752   0.00216   0.00000  Uiso   1.00
O33    O     0.91794   0.44153  -0.00440   0.00000  Uiso   1.00
O34    O     0.04518   0.47135   0.14362   0.00000  Uiso   1.00
O35    O     0.00544   0.50252   0.11317   0.00000  Uiso   1.00
O36    O     0.94174   0.55139   0.06061   0.00000  Uiso   1.00
O37    O     0.94220   0.54911   0.91910   0.00000  Uiso   1.00
O38    O     0.05314   0.59529   0.99545   0.00000  Uiso   1.00
O39    O     0.09411   0.56151   1.00204   0.00000  Uiso   1.00
Ce40   Ce    0.52078   0.97097   0.99394   0.00000  Uiso   1.00
Ce41   Ce    0.48945   0.03412   0.00150   0.00000  Uiso   1.00
C42    C     0.49524   0.02463   0.17494   0.00000  Uiso   1.00
C43    C     0.54546   0.90820   0.98126   0.00000  Uiso   1.00
C44    C     0.60154   0.08703   0.99656   0.00000  Uiso   1.00
C45    C     0.51441   0.98128   0.82050   0.00000  Uiso   1.00
C46    C     0.46501   0.09721   0.01397   0.00000  Uiso   1.00
C47    C     0.40878   0.91791  -0.00113   0.00000  Uiso   1.00
O48    O     0.48289   0.04930   0.14391   0.00000  Uiso   1.00
O49    O     0.50644   0.00184   0.11260   0.00000  Uiso   1.00
O50    O     0.54212   0.92453   0.05485   0.00000  Uiso   1.00
O51    O     0.53823   0.92561   0.91349   0.00000  Uiso   1.00
O52    O     0.59375   0.04411   0.99218   0.00000  Uiso   1.00
O53    O     0.56859   0.09364   0.00114   0.00000  Uiso   1.00
O54    O     0.52645   0.95591   0.84934   0.00000  Uiso   1.00
O55    O     0.50392   1.00354   0.88464   0.00000  Uiso   1.00
O56    O     0.46858   0.08112   0.94025   0.00000  Uiso   1.00
O57    O     0.47158   0.07914   0.08157   0.00000  Uiso   1.00
O58    O     0.41642   0.96079   0.00277   0.00000  Uiso   1.00
O59    O     0.44182   0.91146   0.99479   0.00000  Uiso   1.00
C60    C     0.49872   0.50151   0.44288   0.00000  Uiso   1.00
C61    C     0.45587   0.49000   0.41047   0.00000  Uiso   1.00
C62    C     0.44848   0.48790   0.32005   0.00000  Uiso   1.00
C63    C     0.48374   0.49796   0.26143   0.00000  Uiso   1.00
C64    C     0.52653   0.51081   0.29596   0.00000  Uiso   1.00
N65    N     0.53280   0.51210   0.38451   0.00000  Uiso   1.00
C66    C     0.50812   0.50300   0.53854   0.00000  Uiso   1.00
N67    N     0.55310   0.52694   0.56714   0.00000  Uiso   1.00
C68    C     0.56435   0.53026   0.65385   0.00000  Uiso   1.00
C69    C     0.52915   0.50888   0.71763   0.00000  Uiso   1.00
C70    C     0.48266   0.48326   0.68971   0.00000  Uiso   1.00
C71    C     0.47195   0.47985   0.60063   0.00000  Uiso   1.00
H72    H     0.41514   0.47843   0.29598   0.00000  Uiso   1.00
H73    H     0.55469   0.51907   0.25275   0.00000  Uiso   1.00
H74    H     0.60069   0.55028   0.67288   0.00000  Uiso   1.00
H75    H     0.45443   0.46575   0.73680   0.00000  Uiso   1.00
H76    H     0.42826   0.48313   0.45361   0.00000  Uiso   1.00
H77    H     0.43565   0.45878   0.58156   0.00000  Uiso   1.00
C78    C     0.00534   0.50069   0.54802   0.00000  Uiso   1.00
C79    C     0.01739   0.47894   0.61073   0.00000  Uiso   1.00
C80    C     0.01156   0.48371   0.69976   0.00000  Uiso   1.00
C81    C    -0.00695   0.50929   0.72714   0.00000  Uiso   1.00
C82    C     0.98023   0.52946   0.66288   0.00000  Uiso   1.00
N83    N     0.98672   0.52481   0.57614   0.00000  Uiso   1.00
C84    C     0.01168   0.49753   0.45228   0.00000  Uiso   1.00
N85    N     0.98844   0.50725   0.39414   0.00000  Uiso   1.00
C86    C     0.99227   0.50478   0.30555   0.00000  Uiso   1.00
C87    C     0.02068   0.49164   0.27081   0.00000  Uiso   1.00
C88    C     0.04546   0.48218   0.32914   0.00000  Uiso   1.00
C89    C     0.04141   0.48545   0.41955   0.00000  Uiso   1.00
H90    H     0.02130   0.46700   0.74723   0.00000  Uiso   1.00
H91    H     0.96557   0.54925   0.68149   0.00000  Uiso   1.00
H92    H     0.97283   0.51267   0.26248   0.00000  Uiso   1.00
H93    H     0.06832   0.47263   0.30487   0.00000  Uiso   1.00
H94    H     0.03056   0.45778   0.59223   0.00000  Uiso   1.00
H95    H     0.06206   0.47923   0.46236   0.00000  Uiso   1.00
C96    C     0.50166   0.00914   0.45182   0.00000  Uiso   1.00
C97    C     0.48158   0.03235   0.41897   0.00000  Uiso   1.00
C98    C     0.47993   0.03769   0.32866   0.00000  Uiso   1.00
C99    C     0.49737   0.01929   0.27052   0.00000  Uiso   1.00
C100   C     0.51619  -0.00460   0.30532   0.00000  Uiso   1.00
N101   N     0.51794  -0.00892   0.39386   0.00000  Uiso   1.00
C102   C     0.50502   0.00304   0.54740   0.00000  Uiso   1.00
N103   N     0.51305  -0.03029   0.57480   0.00000  Uiso   1.00
C104   C     0.51645   0.96202   0.66136   0.00000  Uiso   1.00
C105   C     0.51146   0.98869   0.72611   0.00000  Uiso   1.00
C106   C     0.50375   1.02353   0.69957   0.00000  Uiso   1.00
C107   C     0.50092   1.03116   0.61070   0.00000  Uiso   1.00
H108   H     0.46452   0.05579   0.30429   0.00000  Uiso   1.00
H109   H     0.52974  -0.01955   0.26240   0.00000  Uiso   1.00
H110   H     0.52269  -0.06504   0.67941   0.00000  Uiso   1.00
H111   H     0.50037   1.04536   0.74757   0.00000  Uiso   1.00
H112   H     0.46650   1.04568   0.46156   0.00000  Uiso   1.00
H113   H     0.49633   1.05939   0.59286   0.00000  Uiso   1.00
C114   C     0.23217   0.41826   0.02071   0.00000  Uiso   1.00
C115   C     0.25430   0.41752   0.09733   0.00000  Uiso   1.00
C116   C     0.29763   0.42482   0.09108   0.00000  Uiso   1.00
C117   C     0.31876   0.43213   1.00901   0.00000  Uiso   1.00
C118   C     0.29443   0.42964   0.93376   0.00000  Uiso   1.00
N119   N     0.25274   0.42350   0.94154   0.00000  Uiso   1.00
C120   C     0.18950   0.41786   0.02233   0.00000  Uiso   1.00
N121   N     0.17200   0.42035   0.94416   0.00000  Uiso   1.00
C122   C     0.13656   0.42585   0.93874   0.00000  Uiso   1.00
C123   C     0.11718   0.43048   0.01537   0.00000  Uiso   1.00
C124   C     0.13310   0.42603   0.09672   0.00000  Uiso   1.00
C125   C     0.16906   0.41960   0.10067   0.00000  Uiso   1.00
H126   H     0.31521   0.42616   0.15073   0.00000  Uiso   1.00
H127   H     0.30944   0.43487   0.86909   0.00000  Uiso   1.00
H128   H     0.12507   0.42879   0.87458   0.00000  Uiso   1.00
H129   H     0.11895   0.42931   0.15743   0.00000  Uiso   1.00
H130   H     0.23963   0.41283   0.16191   0.00000  Uiso   1.00
H131   H     0.18129   0.41799   0.16472   0.00000  Uiso   1.00
C132   C     0.78907   0.26286  -0.00209   0.00000  Uiso   1.00
C133   C     0.83077   0.26590   1.00232   0.00000  Uiso   1.00
C134   C     0.87363   0.31186   1.00259   0.00000  Uiso   1.00
C135   C     0.87511   0.35473  -0.00110   0.00000  Uiso   1.00
C136   C     0.83266   0.34996  -0.00470   0.00000  Uiso   1.00
N137   N     0.79161   0.30503  -0.00504   0.00000  Uiso   1.00
C138   C     0.74196   0.21597   0.99775   0.00000  Uiso   1.00
N139   N     0.70463   0.21812   0.00811   0.00000  Uiso   1.00
C140   C     0.65999   0.17775   0.00791   0.00000  Uiso   1.00
C141   C     0.65042   0.13108   0.99665   0.00000  Uiso   1.00
C142   C     0.68825   0.12768   0.98541   0.00000  Uiso   1.00
C143   C     0.73401   0.16994   0.98565   0.00000  Uiso   1.00
H144   H     0.90550   0.31379   1.00597   0.00000  Uiso   1.00
H145   H     0.83187   0.38183  -0.00723   0.00000  Uiso   1.00
H146   H     0.63211   0.18239   0.01666   0.00000  Uiso   1.00
H147   H     0.68253   0.09248   0.97577   0.00000  Uiso   1.00
H148   H     0.83082   0.23368   1.00661   0.00000  Uiso   1.00
H149   H     0.76225   0.16614   0.97522   0.00000  Uiso   1.00
C150   C     0.82575   0.58965   0.98469   0.00000  Uiso   1.00
C151   C     0.84684   0.59138   0.06465   0.00000  Uiso   1.00
C152   C     0.88179   0.58351   0.06511   0.00000  Uiso   1.00
C153   C     0.89602   0.57392   0.98648   0.00000  Uiso   1.00
C154   C     0.87575   0.57464   0.90759   0.00000  Uiso   1.00
N155   N     0.84120   0.58171   0.90881   0.00000  Uiso   1.00
C156   C     0.78382   0.59043   0.98124   0.00000  Uiso   1.00
N157   N     0.75658   0.57297   0.90764   0.00000  Uiso   1.00
C158   C     0.71477   0.56683   0.90278   0.00000  Uiso   1.00
C159   C     0.69743   0.57702  -0.02389   0.00000  Uiso   1.00
C160   C     0.72577   0.59738   0.05096   0.00000  Uiso   1.00
C161   C     0.76916   0.60477   0.05349   0.00000  Uiso   1.00
H162   H     0.89642   0.58307   0.12752   0.00000  Uiso   1.00
H163   H     0.88583   0.56746   0.84547   0.00000  Uiso   1.00
H164   H     0.69403   0.55142   0.84349   0.00000  Uiso   1.00
H165   H     0.71387   0.60644   0.10843   0.00000  Uiso   1.00
H166   H     0.83531   0.59618   0.12711   0.00000  Uiso   1.00
H167   H     0.79002   0.62047   0.11236   0.00000  Uiso   1.00
C168   C     0.26892   0.78804  -0.00005   0.00000  Uiso   1.00
C169   C     0.27630   0.83401   0.00798   0.00000  Uiso   1.00
C170   C     0.32186   0.87661   0.00722   0.00000  Uiso   1.00
C171   C     0.36004   0.87361  -0.00101   0.00000  Uiso   1.00
C172   C     0.35104   0.82700  -0.00868   0.00000  Uiso   1.00
N173   N     0.30660   0.78630  -0.00789   0.00000  Uiso   1.00
C174   C     0.22208   0.74081   0.00100   0.00000  Uiso   1.00
N175   N     0.22002   0.69899   0.00751   0.00000  Uiso   1.00
C176   C     0.17923   0.65381   1.00751   0.00000  Uiso   1.00
C177   C     0.13659   0.64841   1.00020   0.00000  Uiso   1.00
C178   C     0.13759   0.69092   0.99360   0.00000  Uiso   1.00
C179   C     0.18014   0.73711   0.99374   0.00000  Uiso   1.00
H180   H     0.32715   0.91177   0.01364   0.00000  Uiso   1.00
H181   H     0.37920   0.82265  -0.01524   0.00000  Uiso   1.00
H182   H     0.18036   0.62223   0.01302   0.00000  Uiso   1.00
H183   H     0.10554   0.68851   0.98769   0.00000  Uiso   1.00
H184   H     0.24775   0.83754   1.01596   0.00000  Uiso   1.00
H185   H     0.17968   0.76898   0.98687   0.00000  Uiso   1.00
C186   C     0.55712   0.78840   0.97087   0.00000  Uiso   1.00
C187   C     0.57483   0.81973   1.04431   0.00000  Uiso   1.00
C188   C     0.57261   0.86014   1.04671   0.00000  Uiso   1.00
C189   C     0.55386   0.86986   0.97533   0.00000  Uiso   1.00
C190   C     0.53864   0.83899   0.90149   0.00000  Uiso   1.00
N191   N     0.53970   0.79898   0.90184   0.00000  Uiso   1.00
C192   C     0.55242   0.74165   0.97067   0.00000  Uiso   1.00
N193   N     0.51297   0.70130   0.93627   0.00000  Uiso   1.00
C194   C     0.50485   0.65637   0.93791   0.00000  Uiso   1.00
C195   C     0.53783   0.65028   0.97497   0.00000  Uiso   1.00
C196   C     0.57938   0.69162   0.00860   0.00000  Uiso   1.00
C197   C     0.58662   0.73734   1.00736   0.00000  Uiso   1.00
H198   H     0.58442   0.88302   1.10506   0.00000  Uiso   1.00
H199   H     0.52364   0.84515   0.84545   0.00000  Uiso   1.00
H200   H     0.47263   0.62548   0.91029   0.00000  Uiso   1.00
H201   H     0.60568   0.68836   0.03764   0.00000  Uiso   1.00
H202   H     0.58794   0.81170   0.10102   0.00000  Uiso   1.00
H203   H     0.61856   0.76891   0.03440   0.00000  Uiso   1.00
C204   C     0.46494   0.26789   0.02392   0.00000  Uiso   1.00
C205   C     0.50514   0.30950   0.06044   0.00000  Uiso   1.00
C206   C     0.51242   0.35487   0.05238   0.00000  Uiso   1.00
C207   C     0.47938   0.35887   0.00947   0.00000  Uiso   1.00
C208   C     0.43914   0.31627  -0.02490   0.00000  Uiso   1.00
N209   N     0.43332   0.27241  -0.01823   0.00000  Uiso   1.00
C210   C     0.45844   0.22024   0.02634   0.00000  Uiso   1.00
N211   N     0.44568   0.19260  -0.04821   0.00000  Uiso   1.00
C212   C     0.44484   0.15139  -0.05252   0.00000  Uiso   1.00
C213   C     0.45767   0.13635   0.02098   0.00000  Uiso   1.00
C214   C     0.46848   0.16290   0.09961   0.00000  Uiso   1.00
C215   C     0.46919   0.20501   0.10239   0.00000  Uiso   1.00
H216   H     0.54388   0.38686   0.07993   0.00000  Uiso   1.00
H217   H     0.41302   0.31804  -0.05889   0.00000  Uiso   1.00
H218   H     0.43584   0.13150  -0.11411   0.00000  Uiso   1.00
H219   H     0.47856   0.15249   0.15776   0.00000  Uiso   1.00
H220   H     0.53136   0.30719   0.09262   0.00000  Uiso   1.00
H221   H     0.47919   0.22617   0.16270   0.00000  Uiso   1.00
loop_
_geom_bond_atom_site_label_1
_geom_bond_atom_site_label_2
_geom_bond_distance
_geom_bond_site_symmetry_2
_ccdc_geom_bond_type
Ce0    O9      2.264   .     S
Ce0    O10     2.271   .     S
Ce0    O19     2.298   .     S
Ce0    O11     2.288   1_554 S
Ce0    O12     2.303   1_554 S
Ce0    O14     2.290   1_554 S
Ce0    O15     2.253   1_554 S
Ce1    O13     2.304   .     S
Ce1    O15     2.250   .     S
Ce1    O16     2.281   .     S
Ce1    O8      2.273   1_556 S
Ce1    O9      2.266   1_556 S
Ce1    O17     2.283   1_556 S
Ce1    O18     2.310   1_556 S
C2     O8      1.227   .     D
C2     O9      1.402   .     S
C2     C63     1.476   .     S
C3     O10     1.277   .     A
C3     C159    1.474   .     S
C3     O11     1.282   1_554 A
C4     O12     1.297   .     A
C4     O13     1.297   .     A
C4     C195    1.476   .     S
C5     O14     1.227   .     D
C5     O15     1.397   .     S
C5     C69     1.476   .     S
C6     O16     1.279   .     A
C6     C117    1.476   .     S
C6     O17     1.281   1_556 A
C7     O18     1.298   .     A
C7     O19     1.296   .     A
C7     C207    1.475   .     S
O8     Ce1     2.273   1_554 S
O9     Ce1     2.266   1_554 S
O11    Ce0     2.288   1_556 S
O11    C3      1.282   1_556 A
O12    Ce0     2.303   1_556 S
O14    Ce0     2.290   1_556 S
O15    Ce0     2.253   1_556 S
O17    Ce1     2.283   1_554 S
O17    C6      1.281   1_554 A
O18    Ce1     2.310   1_554 S
Ce20   O31     2.285   .     S
Ce20   O34     2.269   .     S
Ce20   O35     2.262   .     S
Ce20   O29     2.250   1_454 S
Ce20   O30     2.278   1_554 S
Ce20   O32     2.309   1_455 S
Ce20   O39     2.303   1_554 S
Ce21   O33     2.299   .     S
Ce21   O36     2.270   .     S
Ce21   O28     2.290   1_554 S
Ce21   O29     2.248   1_554 S
Ce21   O35     2.268   1_655 S
Ce21   O37     2.291   1_554 S
Ce21   O38     2.305   1_654 S
C22    O28     1.227   .     D
C22    O29     1.397   .     S
C22    C81     1.475   1_655 S
C23    O30     1.278   .     A
C23    O31     1.281   1_556 A
C23    C123    1.477   1_556 S
C24    O32     1.298   .     A
C24    O33     1.297   .     A
C24    C135    1.483   .     S
C25    O34     1.227   .     D
C25    O35     1.403   .     S
C25    C87     1.474   .     S
C26    O36     1.277   .     A
C26    O37     1.282   1_554 A
C26    C153    1.476   1_554 S
C27    O38     1.297   .     A
C27    O39     1.297   .     A
C27    C177    1.483   .     S
O28    Ce21    2.290   1_556 S
O29    Ce20    2.250   1_656 S
O29    Ce21    2.248   1_556 S
O30    Ce20    2.278   1_556 S
O31    C23     1.281   1_554 A
O32    Ce20    2.309   1_655 S
O35    Ce21    2.268   1_455 S
O37    Ce21    2.291   1_556 S
O37    C26     1.282   1_556 A
O38    Ce21    2.305   1_456 S
O39    Ce20    2.303   1_556 S
Ce40   O51     2.285   .     S
Ce40   O54     2.289   .     S
Ce40   O55     2.249   .     S
Ce40   O59     2.298   .     S
Ce40   O49     2.270   1_566 S
Ce40   O50     2.276   1_556 S
Ce40   O52     2.307   1_565 S
Ce41   O48     2.265   .     S
Ce41   O49     2.266   .     S
Ce41   O53     2.303   .     S
Ce41   O57     2.282   .     S
Ce41   O55     2.245   1_544 S
Ce41   O56     2.282   1_554 S
Ce41   O58     2.311   1_545 S
C42    O48     1.227   .     D
C42    O49     1.404   .     S
C42    C99     1.473   .     S
C43    O51     1.281   .     A
C43    C189    1.473   .     S
C43    O50     1.278   1_556 A
C44    O52     1.298   .     A
C44    C141    1.483   .     S
C44    O53     1.297   1_556 A
C45    O54     1.227   .     D
C45    O55     1.396   .     S
C45    C105    1.472   .     S
C46    O57     1.281   .     A
C46    C213    1.475   .     S
C46    O56     1.278   1_554 A
C47    O58     1.298   .     A
C47    C171    1.483   .     S
C47    O59     1.296   1_554 A
O49    Ce40    2.270   1_544 S
O50    Ce40    2.276   1_554 S
O50    C43     1.278   1_554 A
O52    Ce40    2.307   1_545 S
O53    C44     1.297   1_554 A
O55    Ce41    2.245   1_566 S
O56    Ce41    2.282   1_556 S
O56    C46     1.278   1_556 A
O58    Ce41    2.311   1_565 S
O59    C47     1.296   1_556 A
C60    C61     1.407   .     A
C60    N65     1.363   .     A
C60    C66     1.487   .     S
C61    C62     1.394   .     A
C61    H76     1.080   .     S
C62    C63     1.401   .     A
C62    H72     1.083   .     S
C63    C64     1.402   .     A
C64    N65     1.362   .     A
C64    H73     1.082   .     S
C66    N67     1.364   .     A
C66    C71     1.406   .     A
N67    C68     1.362   .     A
C68    C69     1.403   .     A
C68    H74     1.082   .     S
C69    C70     1.400   .     A
C70    C71     1.393   .     A
C70    H75     1.083   .     S
C71    H77     1.080   .     S
C78    C79     1.406   .     A
C78    C84     1.486   .     S
C78    N83     1.364   1_455 A
C79    C80     1.392   .     A
C79    H94     1.080   .     S
C80    C81     1.400   .     A
C80    H90     1.083   .     S
C81    C82     1.403   1_455 A
C81    C22     1.475   1_455 S
C82    N83     1.362   .     A
C82    H91     1.082   .     S
C82    C81     1.403   1_655 A
N83    C78     1.364   1_655 A
C84    C89     1.407   .     A
C84    N85     1.363   1_455 A
N85    C86     1.361   .     A
N85    C84     1.363   1_655 A
C86    H92     1.082   .     S
C86    C87     1.402   1_655 A
C87    C88     1.400   .     A
C87    C86     1.402   1_455 A
C88    C89     1.393   .     A
C88    H93     1.083   .     S
C89    H95     1.080   .     S
C96    C97     1.407   .     A
C96    N101    1.363   .     A
C96    C102    1.484   .     S
C97    C98     1.392   .     A
C97    H112    1.080   1_545 S
C98    C99     1.401   .     A
C98    H108    1.083   .     S
C99    C100    1.401   .     A
C100   N101    1.361   .     A
C100   H109    1.082   .     S
C102   N103    1.364   .     A
C102   C107    1.406   1_545 A
N103   C104    1.361   1_545 A
C104   C105    1.402   .     A
C104   N103    1.361   1_565 A
C104   H110    1.082   1_565 S
C105   C106    1.400   .     A
C106   C107    1.391   .     A
C106   H111    1.083   .     S
C107   H113    1.080   .     S
C107   C102    1.406   1_565 A
H110   C104    1.082   1_545 S
H112   C97     1.080   1_565 S
C114   C115    1.408   .     A
C114   C120    1.489   .     S
C114   N119    1.363   1_554 A
C115   C116    1.396   .     A
C115   H130    1.079   .     S
C116   H126    1.083   .     S
C116   C117    1.401   1_554 A
C117   C118    1.401   .     A
C117   C116    1.401   1_556 A
C118   N119    1.359   .     A
C118   H127    1.082   .     S
N119   C114    1.363   1_556 A
C120   C125    1.409   .     A
C120   N121    1.363   1_554 A
N121   C122    1.359   .     A
N121   C120    1.363   1_556 A
C122   H128    1.082   .     S
C122   C123    1.401   1_556 A
C123   C124    1.401   .     A
C123   C122    1.401   1_554 A
C123   C23     1.477   1_554 S
C124   C125    1.397   .     A
C124   H129    1.083   .     S
C125   H131    1.079   .     S
C132   N137    1.361   .     A
C132   C133    1.408   1_554 A
C132   C138    1.485   1_554 S
C133   C134    1.400   .     A
C133   H148    1.080   .     S
C133   C132    1.408   1_556 A
C134   H144    1.083   .     S
C134   C135    1.405   1_556 A
C135   C136    1.403   .     A
C135   C134    1.405   1_554 A
C136   N137    1.356   .     A
C136   H145    1.082   .     S
C138   C143    1.407   .     A
C138   C132    1.485   1_556 S
C138   N139    1.361   1_556 A
N139   C140    1.356   .     A
N139   C138    1.361   1_554 A
C140   H146    1.082   .     S
C140   C141    1.403   1_554 A
C141   C142    1.405   .     A
C141   C140    1.403   1_556 A
C142   C143    1.400   .     A
C142   H147    1.083   .     S
C143   H149    1.080   .     S
C150   N155    1.364   .     A
C150   C156    1.486   .     S
C150   C151    1.407   1_556 A
C151   C152    1.393   .     A
C151   H166    1.080   .     S
C151   C150    1.407   1_554 A
C152   H162    1.083   .     S
C152   C153    1.401   1_554 A
C153   C154    1.402   .     A
C153   C152    1.401   1_556 A
C153   C26     1.476   1_556 S
C154   N155    1.361   .     A
C154   H163    1.082   .     S
C156   N157    1.363   .     A
C156   C161    1.407   1_556 A
N157   C158    1.360   .     A
C158   H164    1.082   .     S
C158   C159    1.402   1_556 A
C159   C160    1.400   .     A
C159   C158    1.402   1_554 A
C160   C161    1.394   .     A
C160   H165    1.083   .     S
C161   H167    1.080   .     S
C161   C156    1.407   1_554 A
C168   C169    1.408   .     A
C168   N173    1.360   .     A
C168   C174    1.485   .     S
C169   C170    1.400   .     A
C169   H184    1.080   1_554 S
C170   C171    1.404   .     A
C170   H180    1.083   .     S
C171   C172    1.404   .     A
C172   N173    1.356   .     A
C172   H181    1.082   .     S
C174   N175    1.361   .     A
C174   C179    1.407   1_554 A
N175   C176    1.357   1_554 A
C176   C177    1.403   .     A
C176   N175    1.357   1_556 A
C176   H182    1.082   1_556 S
C177   C178    1.405   .     A
C178   C179    1.399   .     A
C178   H183    1.083   .     S
C179   H185    1.080   .     S
C179   C174    1.407   1_556 A
H182   C176    1.082   1_554 S
H184   C169    1.080   1_556 S
C186   C187    1.404   .     A
C186   N191    1.361   .     A
C186   C192    1.474   .     S
C187   C188    1.397   .     A
C187   H202    1.083   1_556 S
C188   C189    1.402   .     A
C188   H198    1.083   .     S
C189   C190    1.402   .     A
C190   N191    1.359   .     A
C190   H199    1.083   .     S
C192   N193    1.360   .     A
C192   C197    1.403   .     A
N193   C194    1.358   .     A
C194   C195    1.403   .     A
C194   H200    1.083   .     S
C195   C196    1.403   1_556 A
C196   H201    1.083   .     S
C196   C195    1.403   1_554 A
C196   C197    1.397   1_554 A
C197   C196    1.397   1_556 A
C197   H203    1.083   1_556 S
H202   C187    1.083   1_554 S
H203   C197    1.083   1_554 S
C204   C205    1.402   .     A
C204   N209    1.362   .     A
C204   C210    1.474   .     S
C205   C206    1.391   .     A
C205   H220    1.083   .     S
C206   C207    1.402   .     A
C206   H216    1.083   .     S
C207   C208    1.404   .     A
C208   N209    1.363   .     A
C208   H217    1.082   .     S
C210   N211    1.362   .     A
C210   C215    1.402   .     A
N211   C212    1.361   .     A
C212   C213    1.404   .     A
C212   H218    1.082   .     S
C213   C214    1.402   .     A
C214   C215    1.393   .     A
C214   H219    1.083   .     S
C215   H221    1.083   .     S
