data_kag+N139+E14
_audit_creation_date              2025-01-21
_audit_creation_method            'Materials Studio'
_symmetry_space_group_name_H-M    'P1'
_symmetry_Int_Tables_number       1
_symmetry_cell_setting            triclinic
loop_
_symmetry_equiv_pos_as_xyz
  x,y,z
_cell_length_a                    23.9456
_cell_length_b                    20.2607
_cell_length_c                    13.0041
_cell_angle_alpha                 60.2543
_cell_angle_beta                  97.0475
_cell_angle_gamma                 120.3942
loop_
_atom_site_label
_atom_site_type_symbol
_atom_site_fract_x
_atom_site_fract_y
_atom_site_fract_z
_atom_site_U_iso_or_equiv
_atom_site_adp_type
_atom_site_occupancy
C0     C     0.53255   0.55414   0.67942   0.00000  Uiso   1.00
Sm1    Sm    0.43054   0.38605   0.17004   0.00000  Uiso   1.00
Sm2    Sm    0.57723   0.60818   0.84179   0.00000  Uiso   1.00
C3     C     0.52978   0.40274   0.01601   0.00000  Uiso   1.00
C4     C     0.68037   0.59525   0.92057   0.00000  Uiso   1.00
O5     O     0.47616   0.49158   0.22190   0.00000  Uiso   1.00
O6     O     0.45970   0.36470   0.35293   0.00000  Uiso   1.00
O7     O     0.48146   0.58451   0.90308   0.00000  Uiso   1.00
O8     O     0.47620   0.53365   0.09950   0.00000  Uiso   1.00
O9     O     0.37217   0.41705   1.02211   0.00000  Uiso   1.00
O10    O     0.33435   0.36939   0.20297   0.00000  Uiso   1.00
O11    O     0.53367   0.50416   0.78756   0.00000  Uiso   1.00
O12    O     0.55012   0.63105   0.65727   0.00000  Uiso   1.00
O13    O     0.52542   0.40804   0.10779   0.00000  Uiso   1.00
O14    O     0.53076   0.46088   0.91067   0.00000  Uiso   1.00
O15    O     0.63438   0.57486  -0.00873   0.00000  Uiso   1.00
O16    O     0.67373   0.62501   0.81047   0.00000  Uiso   1.00
C17    C     0.47829   0.44224   0.32970   0.00000  Uiso   1.00
C18    C     0.47747   0.59149   0.99344   0.00000  Uiso   1.00
C19    C     0.32662   0.39715   0.09340   0.00000  Uiso   1.00
C20    C     0.99616   0.44807   0.32751   0.00000  Uiso   1.00
Sm21   Sm    1.01708   0.60926   0.83548   0.00000  Uiso   1.00
Sm22   Sm   -0.00612   0.39336   0.17106   0.00000  Uiso   1.00
C23    C     0.11225   0.58855   1.01720   0.00000  Uiso   1.00
C24    C     0.09691   0.40489   0.09787   0.00000  Uiso   1.00
O25    O     0.98147   0.50496   0.78035   0.00000  Uiso   1.00
O26    O     0.05188   0.63628   0.65508   0.00000  Uiso   1.00
O27    O     0.90784   0.40400   0.09066   0.00000  Uiso   1.00
O28    O     0.95112   0.46164   0.90316   0.00000  Uiso   1.00
O29    O     0.95244   0.57821  -0.01716   0.00000  Uiso   1.00
O30    O     0.92602   0.61441   0.80474   0.00000  Uiso   1.00
O31    O     0.03093   0.49961   0.22311   0.00000  Uiso   1.00
O32    O     0.95883   0.36940   0.34858   0.00000  Uiso   1.00
O33    O     0.10373   0.59871   0.91265   0.00000  Uiso   1.00
O34    O     0.06325   0.54120   0.10227   0.00000  Uiso   1.00
O35    O     0.05701   0.41939   1.02710   0.00000  Uiso   1.00
O36    O     0.08294   0.38405   0.20599   0.00000  Uiso   1.00
C37    C     0.01554   0.55769   0.67531   0.00000  Uiso   1.00
C38    C     0.90106   0.41450  -0.01439   0.00000  Uiso   1.00
C39    C     0.91121   0.59038   0.91414   0.00000  Uiso   1.00
C40    C     0.46724  -0.08681   0.36196   0.00000  Uiso   1.00
Sm41   Sm    0.55591   0.09904   0.81699   0.00000  Uiso   1.00
Sm42   Sm    0.46399   0.91153   0.16523   0.00000  Uiso   1.00
C43    C     0.50542   0.89653   0.97138   0.00000  Uiso   1.00
C44    C     0.35634   0.80371   0.12003   0.00000  Uiso   1.00
O45    O     0.51296   0.11147   0.65388   0.00000  Uiso   1.00
O46    O     0.60067   1.10071   0.67712   0.00000  Uiso   1.00
O47    O     0.52880   0.05786   0.09416   0.00000  Uiso   1.00
O48    O     0.49362   0.10579   0.92268   0.00000  Uiso   1.00
O49    O     0.63365   0.12251  -0.07223   0.00000  Uiso   1.00
O50    O     0.63771   0.23646   0.76945   0.00000  Uiso   1.00
O51    O     0.50616   0.89820   0.32927   0.00000  Uiso   1.00
O52    O     0.41901  -0.08987   0.30457   0.00000  Uiso   1.00
O53    O     0.49217   0.95201   0.88770   0.00000  Uiso   1.00
O54    O     0.52700   0.90603   0.05979   0.00000  Uiso   1.00
O55    O     0.38612   0.88856   1.05375   0.00000  Uiso   1.00
O56    O     0.38190   0.77470   0.21251   0.00000  Uiso   1.00
C57    C     0.55192   1.09671   0.62079   0.00000  Uiso   1.00
C58    C     0.51376   0.11235   0.01380   0.00000  Uiso   1.00
C59    C     0.66295   0.20741   0.86242   0.00000  Uiso   1.00
C60    C     0.51203   0.55823   0.38335   0.00000  Uiso   1.00
C61    C     0.49602   0.47205   0.41828   0.00000  Uiso   1.00
C62    C     0.49137   0.41317   0.53959   0.00000  Uiso   1.00
C63    C     0.50160   0.43961   0.62457   0.00000  Uiso   1.00
C64    C     0.51676   0.52542   0.58984   0.00000  Uiso   1.00
C65    C     0.52191   0.58452   0.46841   0.00000  Uiso   1.00
H66    H     0.51665   0.60538   0.29021   0.00000  Uiso   1.00
H67    H     0.47921   0.34652   0.56893   0.00000  Uiso   1.00
H68    H     0.49773   0.39278   0.71766   0.00000  Uiso   1.00
H69    H     0.53403   0.65113   0.43910   0.00000  Uiso   1.00
C70    C     0.97673   0.43961   0.62150   0.00000  Uiso   1.00
C71    C     0.01150   0.53004   0.58617   0.00000  Uiso   1.00
C72    C     0.04107   0.59336   0.46483   0.00000  Uiso   1.00
C73    C     0.03485   0.56691   0.38030   0.00000  Uiso   1.00
C74    C     1.00039   0.47643   0.41587   0.00000  Uiso   1.00
C75    C     0.97099   0.41317   0.53727   0.00000  Uiso   1.00
H76    H     0.95363   0.38928   0.71434   0.00000  Uiso   1.00
H77    H     0.06880   0.66344   0.43538   0.00000  Uiso   1.00
H78    H     0.05742   0.61720   0.28728   0.00000  Uiso   1.00
H79    H     0.94360   0.34310   0.56699   0.00000  Uiso   1.00
C80    C     0.44748  -0.01938   0.45768   0.00000  Uiso   1.00
C81    C     0.48484  -0.04996   0.44129   0.00000  Uiso   1.00
C82    C     0.54662  -0.02638   0.47694   0.00000  Uiso   1.00
C83    C     0.57103   1.02786   0.52678   0.00000  Uiso   1.00
C84    C     0.53385   1.05887   0.54259   0.00000  Uiso   1.00
C85    C     0.47189   1.03473   0.50779   0.00000  Uiso   1.00
H86    H     0.40031  -0.03515   0.42858   0.00000  Uiso   1.00
H87    H     0.57724  -0.04702   0.46196   0.00000  Uiso   1.00
H88    H     0.61830   1.04399   0.55527   0.00000  Uiso   1.00
H89    H     0.44134   1.05544   0.52258   0.00000  Uiso   1.00
C90    C     0.27253   0.48653   1.00689   0.00000  Uiso   1.00
C91    C     0.26886   0.40451   1.05662   0.00000  Uiso   1.00
C92    C     0.20740   0.32592   1.10061   0.00000  Uiso   1.00
C93    C     0.15033   0.32794   1.10281   0.00000  Uiso   1.00
C94    C     0.15401   0.40863   1.06126   0.00000  Uiso   1.00
C95    C     0.21494   0.48888   1.00862   0.00000  Uiso   1.00
H96    H     0.32001   0.54739   0.97664   0.00000  Uiso   1.00
H97    H     0.20403   0.26225   1.14211   0.00000  Uiso   1.00
H98    H     0.10367   0.26590   0.14507   0.00000  Uiso   1.00
H99    H     0.21856   0.55153   0.97974   0.00000  Uiso   1.00
C100   C     0.81310   0.40916  -0.14345   0.00000  Uiso   1.00
C101   C     0.83579   0.36634  -0.03987   0.00000  Uiso   1.00
C102   C     0.79857   0.27424   0.03425   0.00000  Uiso   1.00
C103   C     0.74193   0.22427   0.00212   0.00000  Uiso   1.00
C104   C     0.72066   0.26532  -0.10448   0.00000  Uiso   1.00
C105   C     0.75566   0.35904  -0.17536   0.00000  Uiso   1.00
H106   H     0.83892   0.48087  -0.20046   0.00000  Uiso   1.00
H107   H     0.81529   0.24035   0.11405   0.00000  Uiso   1.00
H108   H     0.71553   0.15276   0.05991   0.00000  Uiso   1.00
H109   H     0.74123   0.39541  -0.25710   0.00000  Uiso   1.00
C110   C     0.85590   0.66209  -0.08062   0.00000  Uiso   1.00
C111   C     0.85253   0.58268  -0.04654   0.00000  Uiso   1.00
C112   C     0.79114   0.50223   0.00024   0.00000  Uiso   1.00
C113   C     0.73351   0.50465   0.00197   0.00000  Uiso   1.00
C114   C     0.73733   0.58613  -0.04148   0.00000  Uiso   1.00
C115   C     0.79877   0.66390  -0.07837   0.00000  Uiso   1.00
H116   H     0.90269   0.72410  -0.11815   0.00000  Uiso   1.00
H117   H     0.78644   0.43915   0.02617   0.00000  Uiso   1.00
H118   H     0.68588   0.44449   0.02781   0.00000  Uiso   1.00
H119   H     0.80226   0.72721  -0.11434   0.00000  Uiso   1.00
C120   C     0.27215   0.78422   0.98892   0.00000  Uiso   1.00
C121   C     0.29718   0.74515   1.09025   0.00000  Uiso   1.00
C122   C     0.26440   0.65168   1.16113   0.00000  Uiso   1.00
C123   C     0.20535   0.59924   1.13522   0.00000  Uiso   1.00
C124   C     0.17856   0.63969   1.03755   0.00000  Uiso   1.00
C125   C     0.21353   0.73201   0.96292   0.00000  Uiso   1.00
H126   H     0.29689   0.85573   0.93119   0.00000  Uiso   1.00
H127   H     0.28276   0.61795   1.23786   0.00000  Uiso   1.00
H128   H     0.18165   0.52768   1.19157   0.00000  Uiso   1.00
H129   H     0.19401   0.76425   0.88708   0.00000  Uiso   1.00
C130   C     0.46482   0.73594   1.07852   0.00000  Uiso   1.00
C131   C     0.49138   0.81734   0.97065   0.00000  Uiso   1.00
C132   C     0.50712   0.82273   0.86506   0.00000  Uiso   1.00
C133   C     0.50023   0.74822   0.86983   0.00000  Uiso   1.00
C134   C     0.47595   0.66742   0.97971   0.00000  Uiso   1.00
C135   C     0.45536   0.66128   1.08222   0.00000  Uiso   1.00
H136   H     0.45203   0.73004   1.16074   0.00000  Uiso   1.00
H137   H     0.52791   0.88547   0.78088   0.00000  Uiso   1.00
H138   H     0.51594   0.75459   0.78916   0.00000  Uiso   1.00
H139   H     0.43324   0.59896   1.16678   0.00000  Uiso   1.00
C140   C     0.50203   0.24418   0.12860   0.00000  Uiso   1.00
C141   C     0.53375   0.32958   0.02639   0.00000  Uiso   1.00
C142   C     0.56466   0.34385  -0.07383   0.00000  Uiso   1.00
C143   C     0.55797   0.27277  -0.07715   0.00000  Uiso   1.00
C144   C     0.52399   0.18701   0.02225   0.00000  Uiso   1.00
C145   C     0.49774   0.17314   0.12678   0.00000  Uiso   1.00
H146   H     0.47796   0.23170   0.20697   0.00000  Uiso   1.00
H147   H     0.59219   0.40970  -0.15185   0.00000  Uiso   1.00
H148   H     0.57942   0.28491  -0.15766   0.00000  Uiso   1.00
H149   H     0.47111   0.10694   0.20400   0.00000  Uiso   1.00
loop_
_geom_bond_atom_site_label_1
_geom_bond_atom_site_label_2
_geom_bond_distance
_geom_bond_site_symmetry_2
_ccdc_geom_bond_type
C0     O11     1.268   .     A
C0     O12     1.269   .     A
C0     C64     1.477   .     S
Sm1    O5      2.260   .     S
Sm1    O6      2.282   .     S
Sm1    O8      2.279   .     S
Sm1    O10     2.217   .     S
Sm1    O13     2.255   .     S
Sm1    O9      2.254   1_554 S
Sm2    O7      2.254   .     S
Sm2    O11     2.258   .     S
Sm2    O12     2.283   .     S
Sm2    O14     2.276   .     S
Sm2    O16     2.218   .     S
Sm2    O15     2.256   1_556 S
C3     O13     1.271   .     A
C3     C141    1.471   .     S
C3     O14     1.282   1_554 A
C4     O16     1.274   .     A
C4     O15     1.281   1_556 A
C4     C114    1.462   1_556 S
O5     C17     1.269   .     A
O6     C17     1.270   .     A
O7     C18     1.271   .     A
O8     C18     1.283   1_554 A
O9     Sm1     2.254   1_556 S
O9     C19     1.282   1_556 A
O10    C19     1.275   .     A
O14    C3      1.282   1_556 A
O15    Sm2     2.256   1_554 S
O15    C4      1.281   1_554 A
C17    C61     1.477   .     S
C18    C134    1.477   .     S
C18    O8      1.283   1_556 A
C19    O9      1.282   1_554 A
C19    C91     1.463   1_554 S
C20    O32     1.265   .     A
C20    C74     1.493   .     S
C20    O31     1.272   1_655 A
Sm21   O25     2.288   .     S
Sm21   O28     2.272   .     S
Sm21   O30     2.214   .     S
Sm21   O26     2.289   1_655 S
Sm21   O29     2.238   1_556 S
Sm21   O33     2.255   1_655 S
Sm22   O31     2.290   .     S
Sm22   O34     2.281   .     S
Sm22   O36     2.208   .     S
Sm22   O27     2.254   1_455 S
Sm22   O32     2.285   1_455 S
Sm22   O35     2.231   1_554 S
C23    O33     1.276   .     A
C23    C124    1.473   .     S
C23    O34     1.283   1_556 A
C24    O36     1.285   .     A
C24    O35     1.283   1_554 A
C24    C94     1.456   1_554 S
O25    C37     1.271   1_655 A
O26    C37     1.265   .     A
O26    Sm21    2.289   1_455 S
O27    C38     1.277   .     A
O27    Sm22    2.254   1_655 S
O28    C38     1.280   1_556 A
O29    Sm21    2.238   1_554 S
O29    C39     1.283   1_554 A
O30    C39     1.284   .     A
O31    C20     1.272   1_455 A
O32    Sm22    2.285   1_655 S
O33    Sm21    2.255   1_455 S
O34    C23     1.283   1_554 A
O35    Sm22    2.231   1_556 S
O35    C24     1.283   1_556 A
C37    C71     1.493   .     S
C37    O25     1.271   1_455 A
C38    C101    1.468   .     S
C38    O28     1.280   1_554 A
C39    O29     1.283   1_556 A
C39    C111    1.461   1_556 S
C40    O52     1.287   .     A
C40    C81     1.462   .     S
C40    O51     1.286   1_545 A
Sm41   O45     2.195   .     S
Sm41   O48     2.242   .     S
Sm41   O50     2.245   .     S
Sm41   O46     2.200   1_545 S
Sm41   O49     2.212   1_556 S
Sm41   O53     2.253   1_545 S
Sm42   O51     2.195   .     S
Sm42   O54     2.236   .     S
Sm42   O56     2.240   .     S
Sm42   O47     2.243   1_565 S
Sm42   O52     2.200   1_565 S
Sm42   O55     2.219   1_554 S
C43    O53     1.269   .     A
C43    C131    1.468   .     S
C43    O54     1.265   1_556 A
C44    O56     1.284   .     A
C44    O55     1.283   1_554 A
C44    C121    1.478   1_554 S
O45    C57     1.286   1_545 A
O46    C57     1.288   .     A
O46    Sm41    2.200   1_565 S
O47    C58     1.267   .     A
O47    Sm42    2.243   1_545 S
O48    C58     1.267   1_556 A
O49    Sm41    2.212   1_554 S
O49    C59     1.284   1_554 A
O50    C59     1.284   .     A
O51    C40     1.286   1_565 A
O52    Sm42    2.200   1_545 S
O53    Sm41    2.253   1_565 S
O54    C43     1.265   1_554 A
O55    Sm42    2.219   1_556 S
O55    C44     1.283   1_556 A
C57    C84     1.462   .     S
C57    O45     1.286   1_565 A
C58    C144    1.464   .     S
C58    O48     1.267   1_554 A
C59    O49     1.284   1_556 A
C59    C104    1.479   1_556 S
C60    C61     1.407   .     A
C60    C65     1.399   .     A
C60    H66     1.081   .     S
C61    C62     1.402   .     A
C62    C63     1.399   .     A
C62    H67     1.083   .     S
C63    C64     1.407   .     A
C63    H68     1.083   .     S
C64    C65     1.402   .     A
C65    H69     1.082   .     S
C70    C75     1.406   .     A
C70    H76     1.084   .     S
C70    C71     1.406   1_655 A
C71    C72     1.408   .     A
C71    C70     1.406   1_455 A
C72    C73     1.408   .     A
C72    H77     1.083   .     S
C73    H78     1.083   .     S
C73    C74     1.406   1_455 A
C74    C75     1.408   .     A
C74    C73     1.406   1_655 A
C75    H79     1.082   .     S
C80    C81     1.403   .     A
C80    H86     1.082   .     S
C80    C85     1.391   1_545 A
C81    C82     1.403   .     A
C82    H87     1.085   .     S
C82    C83     1.391   1_545 A
C83    C84     1.403   .     A
C83    H88     1.081   .     S
C83    C82     1.391   1_565 A
C84    C85     1.402   .     A
C85    H89     1.083   .     S
C85    C80     1.391   1_565 A
C90    C91     1.410   .     A
C90    C95     1.407   .     A
C90    H96     1.085   .     S
C91    C92     1.400   .     A
C91    C19     1.463   1_556 S
C92    C93     1.392   .     A
C92    H97     1.085   .     S
C93    C94     1.401   .     A
C93    H98     1.084   1_556 S
C94    C95     1.408   .     A
C94    C24     1.456   1_556 S
C95    H99     1.088   .     S
H98    C93     1.084   1_554 S
C100   C101    1.414   .     A
C100   C105    1.400   .     A
C100   H106    1.085   .     S
C101   C102    1.396   .     A
C102   C103    1.389   .     A
C102   H107    1.085   .     S
C103   C104    1.408   .     A
C103   H108    1.083   .     S
C104   C105    1.414   .     A
C104   C59     1.479   1_554 S
C105   H109    1.087   .     S
C110   C111    1.400   .     A
C110   C115    1.391   .     A
C110   H116    1.083   .     S
C111   C112    1.414   .     A
C111   C39     1.461   1_554 S
C112   C113    1.409   .     A
C112   H117    1.094   .     S
C113   C114    1.410   .     A
C113   H118    1.086   .     S
C114   C115    1.398   .     A
C114   C4      1.462   1_554 S
C115   H119    1.085   .     S
C120   C121    1.405   .     A
C120   C125    1.393   .     A
C120   H126    1.084   .     S
C121   C122    1.412   .     A
C121   C44     1.478   1_556 S
C122   C123    1.400   .     A
C122   H127    1.084   .     S
C123   C124    1.413   .     A
C123   H128    1.085   .     S
C124   C125    1.398   .     A
C125   H129    1.084   .     S
C130   C131    1.398   .     A
C130   C135    1.388   .     A
C130   H136    1.081   .     S
C131   C132    1.406   .     A
C132   C133    1.403   .     A
C132   H137    1.084   .     S
C133   C134    1.407   .     A
C133   H138    1.082   .     S
C134   C135    1.404   .     A
C135   H139    1.083   .     S
C140   C141    1.405   .     A
C140   C145    1.402   .     A
C140   H146    1.084   .     S
C141   C142    1.406   .     A
C142   C143    1.389   .     A
C142   H147    1.084   .     S
C143   C144    1.397   .     A
C143   H148    1.081   .     S
C144   C145    1.405   .     A
C145   H149    1.081   .     S
