data_kag+N144+E220
_audit_creation_date              2025-01-21
_audit_creation_method            'Materials Studio'
_symmetry_space_group_name_H-M    'P1'
_symmetry_Int_Tables_number       1
_symmetry_cell_setting            triclinic
loop_
_symmetry_equiv_pos_as_xyz
  x,y,z
_cell_length_a                    24.8281
_cell_length_b                    24.0855
_cell_length_c                    11.3980
_cell_angle_alpha                 89.7766
_cell_angle_beta                  89.7701
_cell_angle_gamma                 120.8669
loop_
_atom_site_label
_atom_site_type_symbol
_atom_site_fract_x
_atom_site_fract_y
_atom_site_fract_z
_atom_site_U_iso_or_equiv
_atom_site_adp_type
_atom_site_occupancy
C0     C     0.66580   0.55854   0.89276   0.00000  Uiso   1.00
Er1    Er    0.44839   0.53267  -0.03987   0.00000  Uiso   1.00
Er2    Er    0.55272   0.56867  -0.03846   0.00000  Uiso   1.00
C3     C     0.53229   0.68144  -0.03632   0.00000  Uiso   1.00
O4     O     0.55068   0.56809   0.77037   0.00000  Uiso   1.00
C5     C     0.49946   0.55034   0.20722   0.00000  Uiso   1.00
C6     C     0.47500   0.42284  -0.03348   0.00000  Uiso   1.00
C7     C     0.34876   0.54568   0.96824   0.00000  Uiso   1.00
O8     O     0.62554   0.52073   0.82545   0.00000  Uiso   1.00
O9     O     0.65433   0.59914   0.96284   0.00000  Uiso   1.00
O10    O     0.53085   0.46985  -0.03354   0.00000  Uiso   1.00
O11    O     0.43029   0.43384  -0.04034   0.00000  Uiso   1.00
O12    O     0.55065   0.56862   0.15187   0.00000  Uiso   1.00
O13    O     0.44919   0.53147   0.14999   0.00000  Uiso   1.00
C14    C     0.50025   0.55129   0.71464   0.00000  Uiso   1.00
O15    O     0.44984   0.53482   0.77083   0.00000  Uiso   1.00
O16    O     0.57556   0.66802  -0.03750   0.00000  Uiso   1.00
O17    O     0.47451   0.63582  -0.03918   0.00000  Uiso   1.00
O18    O     0.34710   0.49268   0.96368   0.00000  Uiso   1.00
O19    O     0.40504   0.59317   0.96524   0.00000  Uiso   1.00
C20    C     0.87517   0.36395   0.94452   0.00000  Uiso   1.00
Er21   Er    0.03417   0.61280   0.00115   0.00000  Uiso   1.00
Er22   Er    0.98016   0.50274   0.00205   0.00000  Uiso   1.00
C23    C     0.11913   0.55300   0.00945   0.00000  Uiso   1.00
O24    O     0.98507   0.50283   0.81281   0.00000  Uiso   1.00
C25    C     1.00379   0.55994   0.24835   0.00000  Uiso   1.00
C26    C     0.89344   0.55548  -0.02424   0.00000  Uiso   1.00
C27    C     0.14011   0.72432   1.00209   0.00000  Uiso   1.00
O28    O     0.87855   0.38467   0.84520   0.00000  Uiso   1.00
O29    O     0.92564   0.39549   1.02049   0.00000  Uiso   1.00
O30    O     0.89286   0.50259  -0.01646   0.00000  Uiso   1.00
O31    O     0.94483   0.60856  -0.01008   0.00000  Uiso   1.00
O32    O     0.97782   0.50684   0.19270   0.00000  Uiso   1.00
O33    O     0.03058   0.61322   0.19177   0.00000  Uiso   1.00
C34    C     0.01129   0.55607   0.75572   0.00000  Uiso   1.00
O35    O     0.03655   0.60952   0.81071   0.00000  Uiso   1.00
O36    O     0.06644   0.50054   0.01152   0.00000  Uiso   1.00
O37    O     0.12055   0.60701   0.00839   0.00000  Uiso   1.00
O38    O     0.08687   0.71903   0.99817   0.00000  Uiso   1.00
O39    O     0.13636   0.66962   1.00482   0.00000  Uiso   1.00
C40    C     0.44026   0.16764   1.00745   0.00000  Uiso   1.00
Er41   Er    0.52400   1.00896   0.07650   0.00000  Uiso   1.00
Er42   Er    0.49448   0.08062   0.07711   0.00000  Uiso   1.00
C43    C     0.38316   0.94717   0.06877   0.00000  Uiso   1.00
O44    O     0.49914   0.08667   0.88648   0.00000  Uiso   1.00
C45    C     0.51297   0.04437   0.32312   0.00000  Uiso   1.00
C46    C     0.63602   0.14257   0.06589   0.00000  Uiso   1.00
C47    C     0.56174   0.92309   1.05727   0.00000  Uiso   1.00
O48    O     0.40875   0.12428   0.93929   0.00000  Uiso   1.00
O49    O     0.47290   0.15856   1.09650   0.00000  Uiso   1.00
O50    O     0.59299   0.15540   0.08287   0.00000  Uiso   1.00
O51    O     0.62187   0.08395   0.05886   0.00000  Uiso   1.00
O52    O     0.49131   0.07436   0.26720   0.00000  Uiso   1.00
O53    O     0.53156   0.01183   0.26661   0.00000  Uiso   1.00
C54    C     0.50776   0.04621   0.83012   0.00000  Uiso   1.00
O55    O     0.51628   0.00571   0.88662   0.00000  Uiso   1.00
O56    O     0.39615   0.00555   0.06665   0.00000  Uiso   1.00
O57    O     0.42639   0.93479   0.08684   0.00000  Uiso   1.00
O58    O     0.59757   0.98248   1.05616   0.00000  Uiso   1.00
O59    O     0.50691   0.90865   1.07447   0.00000  Uiso   1.00
C60    C     0.49856   0.55151   0.33717   0.00000  Uiso   1.00
C61    C     0.44355   0.53538   0.40221   0.00000  Uiso   1.00
C62    C     0.44469   0.53464   0.52472   0.00000  Uiso   1.00
C63    C     0.49999   0.55134   0.58522   0.00000  Uiso   1.00
C64    C     0.55459   0.56777   0.52085   0.00000  Uiso   1.00
C65    C     0.55382   0.56776   0.39858   0.00000  Uiso   1.00
O66    O     0.33578   0.46182   0.36798   0.00000  Uiso   1.00
O67    O     0.37887   0.56256   0.29379   0.00000  Uiso   1.00
N68    N     0.38538   0.51815   0.34630   0.00000  Uiso   1.00
H69    H     0.59797   0.58059   0.56500   0.00000  Uiso   1.00
H70    H     0.59649   0.57938   0.35156   0.00000  Uiso   1.00
H71    H     0.40181   0.52150   0.57226   0.00000  Uiso   1.00
C72    C     0.01083   0.55619   0.62567   0.00000  Uiso   1.00
C73    C    -0.00169   0.50135   0.55932   0.00000  Uiso   1.00
C74    C    -0.00618   0.50297   0.43683   0.00000  Uiso   1.00
C75    C     0.00452   0.55907   0.37815   0.00000  Uiso   1.00
C76    C     1.01874   0.61400   0.44407   0.00000  Uiso   1.00
C77    C     1.02046   0.61194   0.56663   0.00000  Uiso   1.00
O78    O    -0.04865   0.38770   0.57766   0.00000  Uiso   1.00
O79    O     0.03758   0.45090   0.68199   0.00000  Uiso   1.00
N80    N    -0.00656   0.44506   0.61321   0.00000  Uiso   1.00
H81    H     1.02780   0.65823   0.40103   0.00000  Uiso   1.00
H82    H     1.02882   0.65394   0.61695   0.00000  Uiso   1.00
H83    H    -0.01460   0.46127   0.38680   0.00000  Uiso   1.00
C84    C     0.51582   0.04761   0.45288   0.00000  Uiso   1.00
C85    C     0.52956   0.10473   0.51430   0.00000  Uiso   1.00
C86    C     0.52346   0.10235   0.63715   0.00000  Uiso   1.00
C87    C     0.50910   0.04635   0.70043   0.00000  Uiso   1.00
C88    C     0.49937   0.99158   0.63943   0.00000  Uiso   1.00
C89    C     0.50173   0.99200   0.51696   0.00000  Uiso   1.00
O90    O     0.55105   0.21294   0.50634   0.00000  Uiso   1.00
O91    O     0.58829   0.17937   0.36222   0.00000  Uiso   1.00
N92    N     0.55251   0.16556   0.45462   0.00000  Uiso   1.00
H93    H     0.48950   0.94816   0.68604   0.00000  Uiso   1.00
H94    H     0.49128   0.94825   0.47206   0.00000  Uiso   1.00
H95    H     0.53296   0.14533   0.68433   0.00000  Uiso   1.00
C96    C     0.29135   0.54992   0.98009   0.00000  Uiso   1.00
C97    C     0.29343   0.60938   0.99052   0.00000  Uiso   1.00
C98    C     0.23747   0.60999   1.00388   0.00000  Uiso   1.00
C99    C     0.17857   0.55203   0.00414   0.00000  Uiso   1.00
C100   C     0.17691   0.49310  -0.00689   0.00000  Uiso   1.00
C101   C     0.23244   0.49211   0.98210   0.00000  Uiso   1.00
O102   O     0.37345   0.69591   0.88189   0.00000  Uiso   1.00
O103   O     0.38773   0.69052   1.07556   0.00000  Uiso   1.00
N104   N     0.35173   0.66951   0.98396   0.00000  Uiso   1.00
H105   H     0.13256   0.44761  -0.00810   0.00000  Uiso   1.00
H106   H     0.22936   0.44574  -0.02593   0.00000  Uiso   1.00
H107   H     0.24032   0.65607   1.01336   0.00000  Uiso   1.00
C108   C     0.81714   0.30560   0.98534   0.00000  Uiso   1.00
C109   C     0.78091   0.30917   1.07752   0.00000  Uiso   1.00
C110   C     0.72277   0.25488   1.10628   0.00000  Uiso   1.00
C111   C     0.70091   0.19601   0.04752   0.00000  Uiso   1.00
C112   C     0.73765   0.19218   0.95802   0.00000  Uiso   1.00
C113   C     0.79479   0.24674   0.92585   0.00000  Uiso   1.00
O114   O     0.76294   0.39372   1.12870   0.00000  Uiso   1.00
O115   O     0.84834   0.39636   1.20206   0.00000  Uiso   1.00
N116   N     0.79926   0.36931   1.13446   0.00000  Uiso   1.00
H117   H     0.72028   0.14773  -0.09134   0.00000  Uiso   1.00
H118   H     0.82065   0.24322   0.85274   0.00000  Uiso   1.00
H119   H     0.69407   0.25894   0.17379   0.00000  Uiso   1.00
C120   C     0.83541   0.55615  -0.05100   0.00000  Uiso   1.00
C121   C     0.78883   0.50994   0.87307   0.00000  Uiso   1.00
C122   C     0.73339   0.51091   0.85413   0.00000  Uiso   1.00
C123   C     0.72528   0.55946   0.90458   0.00000  Uiso   1.00
C124   C     0.77399   0.60876  -0.03106   0.00000  Uiso   1.00
C125   C     0.82836   0.60667  -0.00777   0.00000  Uiso   1.00
O126   O     0.77592   0.40618   0.84931   0.00000  Uiso   1.00
O127   O     0.81799   0.47722   0.69969   0.00000  Uiso   1.00
N128   N     0.79864   0.46479   0.80876   0.00000  Uiso   1.00
H129   H     0.77085   0.64984  -0.00065   0.00000  Uiso   1.00
H130   H     0.86545   0.64540   0.04249   0.00000  Uiso   1.00
H131   H     0.69697   0.47360   0.79938   0.00000  Uiso   1.00
C132   C     0.31980   0.89313   0.04289   0.00000  Uiso   1.00
C133   C     0.31274   0.83944   0.97985   0.00000  Uiso   1.00
C134   C     0.25343   0.78610   0.96259   0.00000  Uiso   1.00
C135   C     0.20036   0.78527   1.00569   0.00000  Uiso   1.00
C136   C     0.20666   0.84001   1.06178   0.00000  Uiso   1.00
C137   C     0.26630   0.89394   0.07978   0.00000  Uiso   1.00
O138   O     0.39081   0.81105   0.99327   0.00000  Uiso   1.00
O139   O     0.38828   0.86352   0.83079   0.00000  Uiso   1.00
N140   N     0.36567   0.83823   0.93325   0.00000  Uiso   1.00
H141   H     0.16579   0.84008   1.09595   0.00000  Uiso   1.00
H142   H     0.27104   0.93530   0.12611   0.00000  Uiso   1.00
H143   H     0.24894   0.74479   0.91637   0.00000  Uiso   1.00
C144   C     0.57647   0.87519   1.02069   0.00000  Uiso   1.00
C145   C     0.59826   0.84623   1.10022   0.00000  Uiso   1.00
C146   C     0.58506   0.78335   0.07661   0.00000  Uiso   1.00
C147   C     0.54991   0.74954  -0.02238   0.00000  Uiso   1.00
C148   C     0.53256   0.78117   0.89553   0.00000  Uiso   1.00
C149   C     0.54697   0.84471   0.91651   0.00000  Uiso   1.00
O150   O     0.63713   0.84599   1.29084   0.00000  Uiso   1.00
O151   O     0.65831   0.94103   1.21540   0.00000  Uiso   1.00
N152   N     0.62992   0.87819   1.20681   0.00000  Uiso   1.00
H153   H     0.50575   0.75589  -0.18161   0.00000  Uiso   1.00
H154   H     0.53136   0.86898   0.85609   0.00000  Uiso   1.00
H155   H     0.59937   0.75927   0.13853   0.00000  Uiso   1.00
C156   C     0.46353   0.35676  -0.02056   0.00000  Uiso   1.00
C157   C     0.50375   0.34548   0.04925   0.00000  Uiso   1.00
C158   C     0.49407   0.28353   1.05875   0.00000  Uiso   1.00
C159   C     0.44561   0.23148   0.99835   0.00000  Uiso   1.00
C160   C     0.40509   0.24227   0.92988   0.00000  Uiso   1.00
C161   C     0.41348   0.30435   0.92161   0.00000  Uiso   1.00
O162   O     0.55714   0.39587   0.22315   0.00000  Uiso   1.00
O163   O     0.61019   0.42485   0.05297   0.00000  Uiso   1.00
N164   N     0.55658   0.39670   0.10858   0.00000  Uiso   1.00
H165   H     0.36682   0.20267   0.88379   0.00000  Uiso   1.00
H166   H     0.38169   0.31147   0.86789   0.00000  Uiso   1.00
H167   H     0.52649   0.27704   1.11165   0.00000  Uiso   1.00
loop_
_geom_bond_atom_site_label_1
_geom_bond_atom_site_label_2
_geom_bond_distance
_geom_bond_site_symmetry_2
_ccdc_geom_bond_type
C0     O8      1.222   .     D
C0     O9      1.402   .     S
C0     C123    1.472   .     S
Er1    O11     2.184   .     S
Er1    O13     2.164   .     S
Er1    O17     2.223   .     S
Er1    O15     2.158   1_554 S
Er1    O18     2.183   1_554 S
Er1    O19     2.212   1_554 S
Er2    O10     2.153   .     S
Er2    O12     2.170   .     S
Er2    O16     2.158   .     S
Er2    O4      2.180   1_554 S
Er2    O9      2.237   1_554 S
C3     O16     1.271   .     A
C3     O17     1.284   .     A
C3     C147    1.474   .     S
O4     C14     1.274   .     A
O4     Er2     2.180   1_556 S
C5     O12     1.275   .     A
C5     O13     1.271   .     A
C5     C60     1.482   .     S
C6     O10     1.263   .     A
C6     O11     1.269   .     A
C6     C156    1.473   .     S
C7     O18     1.257   .     A
C7     O19     1.273   .     A
C7     C96     1.486   .     S
O9     Er2     2.237   1_556 S
C14    O15     1.271   .     A
C14    C63     1.475   .     S
O15    Er1     2.158   1_556 S
O18    Er1     2.183   1_556 S
O19    Er1     2.212   1_556 S
C20    O28     1.220   .     D
C20    O29     1.391   .     S
C20    C108    1.476   .     S
Er21   O33     2.174   .     S
Er21   O37     2.221   .     S
Er21   O31     2.172   1_455 S
Er21   O35     2.174   1_554 S
Er21   O38     2.196   1_554 S
Er21   O39     2.180   1_554 S
Er22   O30     2.177   .     S
Er22   O32     2.178   .     S
Er22   O24     2.160   1_554 S
Er22   O29     2.226   1_554 S
Er22   O36     2.173   1_655 S
C23    O36     1.270   .     A
C23    O37     1.283   .     A
C23    C99     1.489   .     S
O24    Er22    2.160   1_556 S
O24    C34     1.275   1_655 A
C25    O32     1.272   .     A
C25    O33     1.273   1_655 A
C25    C75     1.480   1_655 S
C26    O30     1.269   .     A
C26    O31     1.272   .     A
C26    C120    1.482   .     S
C27    O38     1.262   .     A
C27    O39     1.272   .     A
C27    C135    1.464   .     S
O29    Er22    2.226   1_556 S
O31    Er21    2.172   1_655 S
O33    C25     1.273   1_455 A
C34    O35     1.275   .     A
C34    C72     1.482   .     S
C34    O24     1.275   1_455 A
O35    Er21    2.174   1_556 S
O36    Er22    2.173   1_455 S
O38    Er21    2.196   1_556 S
O39    Er21    2.180   1_556 S
C40    O48     1.216   .     D
C40    O49     1.386   .     S
C40    C159    1.477   .     S
Er41   O57     2.152   .     S
Er41   O51     2.167   1_565 S
Er41   O53     2.174   1_565 S
Er41   O55     2.172   1_564 S
Er41   O58     2.234   1_554 S
Er41   O59     2.229   1_554 S
Er42   O50     2.171   .     S
Er42   O52     2.170   .     S
Er42   O56     2.172   .     S
Er42   O44     2.176   1_554 S
Er42   O49     2.212   1_554 S
C43    O57     1.270   .     A
C43    C132    1.470   .     S
C43    O56     1.271   1_565 A
O44    C54     1.275   .     A
O44    Er42    2.176   1_556 S
C45    O52     1.271   .     A
C45    O53     1.271   .     A
C45    C84     1.481   .     S
C46    O50     1.270   .     A
C46    O51     1.271   .     A
C46    C111    1.471   .     S
C47    O58     1.238   .     A
C47    O59     1.235   .     A
C47    C144    1.440   .     S
O49    Er42    2.212   1_556 S
O51    Er41    2.167   1_545 S
O53    Er41    2.174   1_545 S
C54    O55     1.272   .     A
C54    C87     1.479   .     S
O55    Er41    2.172   1_546 S
O56    C43     1.271   1_545 A
O58    Er41    2.234   1_556 S
O59    Er41    2.229   1_556 S
C60    C61     1.418   .     A
C60    C65     1.409   .     A
C61    C62     1.397   .     A
C61    N68     1.435   .     S
C62    C63     1.402   .     A
C62    H71     1.084   .     S
C63    C64     1.404   .     A
C64    C65     1.394   .     A
C64    H69     1.083   .     S
C65    H70     1.085   .     S
O66    N68     1.303   .     A
O67    N68     1.304   .     A
C72    C73     1.415   .     A
C72    C77     1.405   1_455 A
C73    C74     1.403   .     A
C73    N80     1.433   .     S
C74    C75     1.402   .     A
C74    H83     1.081   .     S
C75    C76     1.404   1_455 A
C75    C25     1.480   1_455 S
C76    C77     1.399   .     A
C76    H81     1.084   .     S
C76    C75     1.404   1_655 A
C77    H82     1.089   .     S
C77    C72     1.405   1_655 A
O78    N80     1.300   .     A
O79    N80     1.298   .     A
C84    C85     1.424   .     A
C84    C89     1.400   1_545 A
C85    C86     1.406   .     A
C85    N92     1.437   .     S
C86    C87     1.401   .     A
C86    H95     1.082   .     S
C87    C88     1.401   1_545 A
C88    C89     1.397   .     A
C88    H93     1.081   .     S
C88    C87     1.401   1_565 A
C89    H94     1.079   .     S
C89    C84     1.400   1_565 A
O90    N92     1.303   .     A
O91    N92     1.302   .     A
C96    C97     1.412   .     A
C96    C101    1.410   .     A
C97    C98     1.405   .     A
C97    N104    1.430   .     S
C98    H107    1.081   .     S
C98    C99     1.412   1_556 A
C99    C100    1.405   .     A
C99    C98     1.412   1_554 A
C100   H105    1.084   .     S
C100   C101    1.396   1_554 A
C101   C100    1.396   1_556 A
C101   H106    1.084   1_556 S
O102   N104    1.298   .     A
O103   N104    1.301   .     A
H106   C101    1.084   1_554 S
C108   C109    1.412   .     A
C108   C113    1.407   .     A
C109   C110    1.399   .     A
C109   N116    1.435   .     S
C110   C111    1.405   1_556 A
C110   H119    1.085   1_556 S
C111   C110    1.405   1_554 A
C111   C112    1.400   1_554 A
C112   C113    1.398   .     A
C112   C111    1.400   1_556 A
C112   H117    1.087   1_556 S
C113   H118    1.080   .     S
O114   N116    1.307   .     A
O115   N116    1.304   .     A
H117   C112    1.087   1_554 S
H119   C110    1.085   1_554 S
C120   C125    1.406   .     A
C120   C121    1.421   1_554 A
C121   C122    1.406   .     A
C121   N128    1.434   .     S
C121   C120    1.421   1_556 A
C122   C123    1.409   .     A
C122   H131    1.091   .     S
C123   C124    1.397   1_556 A
C124   C125    1.403   .     A
C124   H129    1.089   .     S
C124   C123    1.397   1_554 A
C125   H130    1.083   .     S
O126   N128    1.304   .     A
O127   N128    1.308   .     A
C132   C137    1.402   .     A
C132   C133    1.412   1_554 A
C133   C134    1.386   .     A
C133   N140    1.429   .     S
C133   C132    1.412   1_556 A
C134   C135    1.395   .     A
C134   H143    1.082   .     S
C135   C136    1.403   .     A
C136   H141    1.086   .     S
C136   C137    1.397   1_556 A
C137   H142    1.081   .     S
C137   C136    1.397   1_554 A
O138   N140    1.306   .     A
O139   N140    1.300   .     A
C144   C145    1.410   .     A
C144   C149    1.396   .     A
C145   N152    1.442   .     S
C145   C146    1.403   1_556 A
C146   C147    1.408   .     A
C146   H155    1.082   .     S
C146   C145    1.403   1_554 A
C147   C148    1.406   1_554 A
C148   C149    1.403   .     A
C148   C147    1.406   1_556 A
C148   H153    1.086   1_556 S
C149   H154    1.094   .     S
O150   N152    1.299   .     A
O151   N152    1.306   .     A
H153   C148    1.086   1_554 S
C156   C157    1.410   .     A
C156   C161    1.406   1_554 A
C157   N164    1.433   .     S
C157   C158    1.388   1_554 A
C158   C159    1.400   .     A
C158   H167    1.081   .     S
C158   C157    1.388   1_556 A
C159   C160    1.401   .     A
C160   C161    1.403   .     A
C160   H165    1.080   .     S
C161   H166    1.081   .     S
C161   C156    1.406   1_556 A
O162   N164    1.306   .     A
O163   N164    1.303   .     A
