data_kag+N144+E35
_audit_creation_date              2025-01-21
_audit_creation_method            'Materials Studio'
_symmetry_space_group_name_H-M    'P1'
_symmetry_Int_Tables_number       1
_symmetry_cell_setting            triclinic
loop_
_symmetry_equiv_pos_as_xyz
  x,y,z
_cell_length_a                    32.9892
_cell_length_b                    32.9591
_cell_length_c                    15.6536
_cell_angle_alpha                 92.5378
_cell_angle_beta                  91.2234
_cell_angle_gamma                 119.6773
loop_
_atom_site_label
_atom_site_type_symbol
_atom_site_fract_x
_atom_site_fract_y
_atom_site_fract_z
_atom_site_U_iso_or_equiv
_atom_site_adp_type
_atom_site_occupancy
C0     C     0.65098   0.61525   0.96385   0.00000  Uiso   1.00
Er1    Er    0.46914   0.54024   0.01132   0.00000  Uiso   1.00
Er2    Er    0.54858   0.57491   0.01899   0.00000  Uiso   1.00
C3     C     0.52037   0.64861   0.02206   0.00000  Uiso   1.00
O4     O     0.54754   0.57282   0.87933   0.00000  Uiso   1.00
C5     C     0.50718   0.55831   0.19457   0.00000  Uiso   1.00
C6     C     0.50293   0.46952   0.00848   0.00000  Uiso   1.00
C7     C     0.39170   0.54504   1.00422   0.00000  Uiso   1.00
O8     O     0.63883   0.62852   0.90207   0.00000  Uiso   1.00
O9     O     0.62546   0.60490   1.03723   0.00000  Uiso   1.00
O10    O     0.54255   0.50637   0.01586   0.00000  Uiso   1.00
O11    O     0.46622   0.47281   0.00490   0.00000  Uiso   1.00
O12    O     0.54585   0.57525   0.15792   0.00000  Uiso   1.00
O13    O     0.46905   0.54090   0.14963   0.00000  Uiso   1.00
C14    C     0.50901   0.55631   0.83558   0.00000  Uiso   1.00
O15    O     0.47084   0.54049   0.87345   0.00000  Uiso   1.00
O16    O     0.55654   0.64434   0.02223   0.00000  Uiso   1.00
O17    O     0.47980   0.61188   0.01839   0.00000  Uiso   1.00
O18    O     0.39269   0.50723   1.00272   0.00000  Uiso   1.00
O19    O     0.43255   0.58056   1.01043   0.00000  Uiso   1.00
C20    C     0.90818   0.44195   0.93351   0.00000  Uiso   1.00
Er21   Er    0.04000   0.61311   0.00173   0.00000  Uiso   1.00
Er22   Er    0.99461   0.53388  -0.00660   0.00000  Uiso   1.00
C23    C     0.09651   0.56177  -0.00406   0.00000  Uiso   1.00
O24    O    -0.00488   0.53553   0.85505   0.00000  Uiso   1.00
C25    C     0.01810   0.57329   0.17707   0.00000  Uiso   1.00
C26    C     0.93668   0.58212  -0.00581   0.00000  Uiso   1.00
C27    C     0.12122   0.69117   1.01251   0.00000  Uiso   1.00
O28    O     0.90881   0.46722   0.87850   0.00000  Uiso   1.00
O29    O     0.94795   0.45635   0.98687   0.00000  Uiso   1.00
O30    O     0.93278   0.54184  -0.00600   0.00000  Uiso   1.00
O31    O     0.97698   0.61797  -0.00187   0.00000  Uiso   1.00
O32    O     0.99637   0.53501   0.13152   0.00000  Uiso   1.00
O33    O     0.03943   0.61190   0.14101   0.00000  Uiso   1.00
C34    C     0.01710   0.57365   0.81807   0.00000  Uiso   1.00
O35    O     0.03964   0.61223   0.86271   0.00000  Uiso   1.00
O36    O     0.05618   0.52559  -0.00671   0.00000  Uiso   1.00
O37    O     0.10050   0.60246   0.00169   0.00000  Uiso   1.00
O38    O     0.08215   0.68932   1.01035   0.00000  Uiso   1.00
O39    O     0.11695   0.65062   1.00929   0.00000  Uiso   1.00
C40    C     0.46635   0.14916   0.96889   0.00000  Uiso   1.00
Er41   Er    0.54172   0.04238   0.02497   0.00000  Uiso   1.00
Er42   Er    0.50522   0.08563   0.02827   0.00000  Uiso   1.00
C43    C     0.43368   0.98376   0.02607   0.00000  Uiso   1.00
O44    O     0.50092   0.08080   0.88936   0.00000  Uiso   1.00
C45    C     0.52753   0.06679   0.20644   0.00000  Uiso   1.00
C46    C     0.60952   0.14757   0.02626   0.00000  Uiso   1.00
C47    C     0.53933   0.96120   1.01664   0.00000  Uiso   1.00
O48    O     0.45433   0.12611   0.90083   0.00000  Uiso   1.00
O49    O     0.47211   0.13004   1.04254   0.00000  Uiso   1.00
O50    O     0.57179   0.14882   0.02638   0.00000  Uiso   1.00
O51    O     0.60809   0.10836   0.02888   0.00000  Uiso   1.00
O52    O     0.51096   0.08857   0.16664   0.00000  Uiso   1.00
O53    O     0.54326   0.04399   0.16442   0.00000  Uiso   1.00
C54    C     0.51919   0.06070   0.84668   0.00000  Uiso   1.00
O55    O     0.53903   0.04162   0.88579   0.00000  Uiso   1.00
O56    O     0.43750   0.02397   0.03002   0.00000  Uiso   1.00
O57    O     0.47058   0.98010   0.02134   0.00000  Uiso   1.00
O58    O     0.57654   1.00031   1.02168   0.00000  Uiso   1.00
O59    O     0.50314   0.96568   1.01658   0.00000  Uiso   1.00
C60    C     0.50408   0.55681   0.46753   0.00000  Uiso   1.00
C61    C     0.46364   0.54673   0.41833   0.00000  Uiso   1.00
C62    C     0.46483   0.54731   0.32951   0.00000  Uiso   1.00
C63    C     0.50628   0.55861   0.28901   0.00000  Uiso   1.00
C64    C     0.54635   0.56987   0.34032   0.00000  Uiso   1.00
N65    N     0.54423   0.56857   0.42698   0.00000  Uiso   1.00
C66    C     0.50434   0.55545   0.56218   0.00000  Uiso   1.00
N67    N     0.54582   0.57852   0.60874   0.00000  Uiso   1.00
C68    C     0.54853   0.57895   0.69577   0.00000  Uiso   1.00
C69    C     0.50774   0.55527   0.74099   0.00000  Uiso   1.00
C70    C     0.46482   0.53059   0.69416   0.00000  Uiso   1.00
C71    C     0.46295   0.53030   0.60527   0.00000  Uiso   1.00
H72    H     0.43330   0.53919   0.29258   0.00000  Uiso   1.00
H73    H     0.57914   0.57909   0.31165   0.00000  Uiso   1.00
H74    H     0.58239   0.59822   0.72944   0.00000  Uiso   1.00
H75    H     0.43251   0.51114   0.72620   0.00000  Uiso   1.00
H76    H     0.43139   0.53905   0.44736   0.00000  Uiso   1.00
H77    H     0.42934   0.50992   0.57144   0.00000  Uiso   1.00
C78    C     0.01477   0.56962   0.54451   0.00000  Uiso   1.00
C79    C     0.98310   0.53010   0.58640   0.00000  Uiso   1.00
C80    C     0.98409   0.53160   0.67545   0.00000  Uiso   1.00
C81    C     0.01596   0.57252   0.72353   0.00000  Uiso   1.00
C82    C     0.04629   0.61171   0.67960   0.00000  Uiso   1.00
N83    N     0.04502   0.60929   0.59245   0.00000  Uiso   1.00
C84    C     0.01575   0.56946   0.44980   0.00000  Uiso   1.00
N85    N     0.03539   0.61096   0.41161   0.00000  Uiso   1.00
C86    C     0.03711   0.61335   0.32504   0.00000  Uiso   1.00
C87    C     0.01812   0.57220   0.27144   0.00000  Uiso   1.00
C88    C     0.99858   0.52919   0.30954   0.00000  Uiso   1.00
C89    C     0.99759   0.52763   0.39820   0.00000  Uiso   1.00
H90    H     0.95955   0.50077   0.70671   0.00000  Uiso   1.00
H91    H     0.07133   0.64399   0.71436   0.00000  Uiso   1.00
H92    H     0.05287   0.64730   0.29832   0.00000  Uiso   1.00
H93    H     0.98418   0.49659   0.27076   0.00000  Uiso   1.00
H94    H     0.95719   0.49837   0.55154   0.00000  Uiso   1.00
H95    H     0.98331   0.49390   0.42524   0.00000  Uiso   1.00
C96    C     0.52184   0.06609   0.47928   0.00000  Uiso   1.00
C97    C     0.51121   0.09598   0.43467   0.00000  Uiso   1.00
C98    C     0.51378   0.09650   0.34605   0.00000  Uiso   1.00
C99    C     0.52733   0.06774   0.30106   0.00000  Uiso   1.00
C100   C     0.53892   0.03926   0.34796   0.00000  Uiso   1.00
N101   N     0.53589   0.03913   0.43461   0.00000  Uiso   1.00
C102   C     0.51911   0.06382   0.57363   0.00000  Uiso   1.00
N103   N     0.54360   0.04719   0.61677   0.00000  Uiso   1.00
C104   C     0.54351   0.04497   0.70340   0.00000  Uiso   1.00
C105   C     0.51783   0.06034   0.75205   0.00000  Uiso   1.00
C106   C     0.49148   0.07654   0.70877   0.00000  Uiso   1.00
C107   C     0.49175   0.07806   0.61995   0.00000  Uiso   1.00
H108   H     0.50507   0.11949   0.31274   0.00000  Uiso   1.00
H109   H     0.54970   0.01665   0.31584   0.00000  Uiso   1.00
H110   H     0.56411   0.03194   0.73415   0.00000  Uiso   1.00
H111   H     0.47056   0.08804   0.74351   0.00000  Uiso   1.00
H112   H     0.50155   0.11932   0.46722   0.00000  Uiso   1.00
H113   H     0.47027   0.08983   0.58859   0.00000  Uiso   1.00
C114   C     0.26686   0.55394   0.99040   0.00000  Uiso   1.00
C115   C     0.31069   0.59463   0.98746   0.00000  Uiso   1.00
C116   C     0.35118   0.59139   0.99091   0.00000  Uiso   1.00
C117   C     0.34858   0.54808   0.99905   0.00000  Uiso   1.00
C118   C     0.30436   0.50823   0.00257   0.00000  Uiso   1.00
N119   N     0.26514   0.51212  -0.00156   0.00000  Uiso   1.00
C120   C     0.22268   0.55560   0.98729   0.00000  Uiso   1.00
N121   N     0.18317   0.51951   0.01654   0.00000  Uiso   1.00
C122   C     0.14194   0.51968   0.01812   0.00000  Uiso   1.00
C123   C     0.13931   0.55828  -0.00944   0.00000  Uiso   1.00
C124   C     0.17912   0.59500   0.95784   0.00000  Uiso   1.00
C125   C     0.22049   0.59360   0.95506   0.00000  Uiso   1.00
H126   H     0.38451   0.62285   0.98694   0.00000  Uiso   1.00
H127   H     0.30094   0.47413   0.00904   0.00000  Uiso   1.00
H128   H     0.11177   0.49037   0.04285   0.00000  Uiso   1.00
H129   H     0.17817   0.62477   0.93342   0.00000  Uiso   1.00
H130   H     0.31429   0.62893   0.98407   0.00000  Uiso   1.00
H131   H     0.24999   0.62198   0.92709   0.00000  Uiso   1.00
C132   C     0.78141   0.31610   0.97447   0.00000  Uiso   1.00
C133   C     0.78149   0.34695   0.91545   0.00000  Uiso   1.00
C134   C     0.82306   0.38729   0.90077   0.00000  Uiso   1.00
C135   C     0.86477   0.39739   0.94497   0.00000  Uiso   1.00
C136   C     0.86350   0.36520   1.00231   0.00000  Uiso   1.00
N137   N     0.82241   0.32574   1.01522   0.00000  Uiso   1.00
C138   C     0.73740   0.27367   0.99287   0.00000  Uiso   1.00
N139   N     0.73747   0.23336   0.00863   0.00000  Uiso   1.00
C140   C     0.69741   0.19286   0.02177   0.00000  Uiso   1.00
C141   C     0.65421   0.19164   0.01970   0.00000  Uiso   1.00
C142   C     0.65382   0.23328   1.00642   0.00000  Uiso   1.00
C143   C     0.69511   0.27412   0.99287   0.00000  Uiso   1.00
H144   H     0.82234   0.41096   0.85572   0.00000  Uiso   1.00
H145   H     0.89493   0.37161   1.03745   0.00000  Uiso   1.00
H146   H     0.69925   0.16158   0.03232   0.00000  Uiso   1.00
H147   H     0.62144   0.23420   1.00481   0.00000  Uiso   1.00
H148   H     0.74978   0.33993   0.88049   0.00000  Uiso   1.00
H149   H     0.69385   0.30574   0.98253   0.00000  Uiso   1.00
C150   C     0.81644   0.59867   0.97255   0.00000  Uiso   1.00
C151   C     0.86054   0.63602   0.95637   0.00000  Uiso   1.00
C152   C     0.89968   0.63055   0.96438   0.00000  Uiso   1.00
C153   C     0.89510   0.58791  -0.01220   0.00000  Uiso   1.00
C154   C     0.85039   0.55137   0.00344   0.00000  Uiso   1.00
N155   N     0.81274   0.55774  -0.00367   0.00000  Uiso   1.00
C156   C     0.77423   0.60340   0.96716   0.00000  Uiso   1.00
N157   N     0.74007   0.58098   0.02283   0.00000  Uiso   1.00
C158   C     0.70074   0.58452   1.02271   0.00000  Uiso   1.00
C159   C     0.69375   0.61141   0.96328   0.00000  Uiso   1.00
C160   C     0.72802   0.63403   0.90399   0.00000  Uiso   1.00
C161   C     0.76843   0.63034   0.90608   0.00000  Uiso   1.00
H162   H     0.93354   0.65963   0.95154   0.00000  Uiso   1.00
H163   H     0.84541   0.51802   0.02200   0.00000  Uiso   1.00
H164   H     0.67486   0.56602   0.06877   0.00000  Uiso   1.00
H165   H     0.72380   0.65487   0.85677   0.00000  Uiso   1.00
H166   H     0.86495   0.66941   0.93946   0.00000  Uiso   1.00
H167   H     0.79447   0.64782   0.85968   0.00000  Uiso   1.00
C168   C     0.29776   0.86240   1.02673   0.00000  Uiso   1.00
C169   C     0.30300   0.90727   0.04003   0.00000  Uiso   1.00
C170   C     0.34729   0.94664   0.03957   0.00000  Uiso   1.00
C171   C     0.38671   0.94181   0.02726   0.00000  Uiso   1.00
C172   C     0.38024   0.89649   1.01676   0.00000  Uiso   1.00
N173   N     0.33664   0.85854   1.01639   0.00000  Uiso   1.00
C174   C     0.25144   0.81905   1.02407   0.00000  Uiso   1.00
N175   N     0.24973   0.77702   1.02892   0.00000  Uiso   1.00
C176   C     0.20873   0.73573   1.02576   0.00000  Uiso   1.00
C177   C     0.16614   0.73529   1.01716   0.00000  Uiso   1.00
C178   C     0.16691   0.77795   0.01178   0.00000  Uiso   1.00
C179   C     0.20928   0.81975   0.01454   0.00000  Uiso   1.00
H180   H     0.35061   0.98092   0.04947   0.00000  Uiso   1.00
H181   H     0.40962   0.89114   1.00853   0.00000  Uiso   1.00
H182   H     0.20947   0.70342   1.03010   0.00000  Uiso   1.00
H183   H     0.13470   0.77899   0.00450   0.00000  Uiso   1.00
H184   H     0.27376   0.91255   0.05173   0.00000  Uiso   1.00
H185   H     0.20838   0.85173   0.00756   0.00000  Uiso   1.00
C186   C     0.53184   0.82823   1.01495   0.00000  Uiso   1.00
C187   C     0.49274   0.83128   0.98731   0.00000  Uiso   1.00
C188   C     0.49581   0.87489   0.98586   0.00000  Uiso   1.00
C189   C     0.53747   0.91552   1.01232   0.00000  Uiso   1.00
C190   C     0.57643   0.91133   1.03628   0.00000  Uiso   1.00
N191   N     0.57269   0.86828   1.03713   0.00000  Uiso   1.00
C192   C     0.52904   0.78226   1.02064   0.00000  Uiso   1.00
N193   N     0.56697   0.77757   0.00422   0.00000  Uiso   1.00
C194   C     0.56561   0.73561   0.00611   0.00000  Uiso   1.00
C195   C     0.52423   0.69531   0.02522   0.00000  Uiso   1.00
C196   C     0.48555   0.69999   1.04574   0.00000  Uiso   1.00
C197   C     0.48770   0.74314   1.04327   0.00000  Uiso   1.00
H198   H     0.46570   0.87684   0.96337   0.00000  Uiso   1.00
H199   H     0.60939   0.94204   1.05624   0.00000  Uiso   1.00
H200   H     0.59646   0.73362  -0.00900   0.00000  Uiso   1.00
H201   H     0.45367   0.67032   1.06440   0.00000  Uiso   1.00
H202   H     0.46018   0.80035   0.96623   0.00000  Uiso   1.00
H203   H     0.45740   0.74585   1.05988   0.00000  Uiso   1.00
C204   C     0.49236   0.33498   0.99357   0.00000  Uiso   1.00
C205   C     0.53377   0.37399   0.02759   0.00000  Uiso   1.00
C206   C     0.53734   0.41801   0.03216   0.00000  Uiso   1.00
C207   C     0.49963   0.42315   0.00372   0.00000  Uiso   1.00
C208   C     0.45893   0.38333  -0.03022   0.00000  Uiso   1.00
N209   N     0.45646   0.34086   0.96504   0.00000  Uiso   1.00
C210   C     0.48691   0.28770   0.98790   0.00000  Uiso   1.00
N211   N     0.46090   0.25705   0.92124   0.00000  Uiso   1.00
C212   C     0.45416   0.21283   0.91298   0.00000  Uiso   1.00
C213   C     0.47337   0.19702   0.97528   0.00000  Uiso   1.00
C214   C     0.49978   0.22787   1.04495   0.00000  Uiso   1.00
C215   C     0.50691   0.27326   1.05120   0.00000  Uiso   1.00
H216   H     0.56940   0.44791   0.05854   0.00000  Uiso   1.00
H217   H     0.42929   0.38600  -0.05371   0.00000  Uiso   1.00
H218   H     0.43339   0.18997   0.85848   0.00000  Uiso   1.00
H219   H     0.51524   0.21704   1.09435   0.00000  Uiso   1.00
H220   H     0.56332   0.37070   0.04928   0.00000  Uiso   1.00
H221   H     0.52701   0.29642   1.10590   0.00000  Uiso   1.00
loop_
_geom_bond_atom_site_label_1
_geom_bond_atom_site_label_2
_geom_bond_distance
_geom_bond_site_symmetry_2
_ccdc_geom_bond_type
C0     O8      1.217   .     D
C0     O9      1.391   .     S
C0     C159    1.478   .     S
Er1    O11     2.174   .     S
Er1    O13     2.164   .     S
Er1    O17     2.206   .     S
Er1    O15     2.160   1_554 S
Er1    O18     2.195   1_554 S
Er1    O19     2.194   1_554 S
Er2    O10     2.166   .     S
Er2    O12     2.178   .     S
Er2    O16     2.168   .     S
Er2    O4      2.183   1_554 S
Er2    O9      2.226   1_554 S
C3     O16     1.269   .     A
C3     O17     1.283   .     A
C3     C195    1.479   .     S
O4     C14     1.275   .     A
O4     Er2     2.183   1_556 S
C5     O12     1.274   .     A
C5     O13     1.272   .     A
C5     C63     1.479   .     S
C6     O10     1.267   .     A
C6     O11     1.269   .     A
C6     C207    1.476   .     S
C7     O18     1.262   .     A
C7     O19     1.272   .     A
C7     C117    1.475   .     S
O9     Er2     2.226   1_556 S
C14    O15     1.272   .     A
C14    C69     1.479   .     S
O15    Er1     2.160   1_556 S
O18    Er1     2.195   1_556 S
O19    Er1     2.194   1_556 S
C20    O28     1.218   .     D
C20    O29     1.395   .     S
C20    C135    1.480   .     S
Er21   O33     2.183   .     S
Er21   O37     2.191   .     S
Er21   O31     2.162   1_455 S
Er21   O35     2.175   1_554 S
Er21   O38     2.183   1_554 S
Er21   O39     2.203   1_554 S
Er22   O30     2.182   .     S
Er22   O32     2.160   .     S
Er22   O24     2.169   1_654 S
Er22   O29     2.233   1_554 S
Er22   O36     2.179   1_655 S
C23    O36     1.271   .     A
C23    O37     1.280   .     A
C23    C123    1.476   .     S
O24    C34     1.273   .     A
O24    Er22    2.169   1_456 S
C25    O33     1.275   .     A
C25    C87     1.479   .     S
C25    O32     1.272   1_455 A
C26    O30     1.269   .     A
C26    O31     1.266   .     A
C26    C153    1.478   .     S
C27    O38     1.260   .     A
C27    O39     1.271   .     A
C27    C177    1.472   .     S
O29    Er22    2.233   1_556 S
O31    Er21    2.162   1_655 S
O32    C25     1.272   1_655 A
C34    O35     1.273   .     A
C34    C81     1.478   .     S
O35    Er21    2.175   1_556 S
O36    Er22    2.179   1_455 S
O38    Er21    2.183   1_556 S
O39    Er21    2.203   1_556 S
C40    O48     1.217   .     D
C40    O49     1.391   .     S
C40    C213    1.475   .     S
Er41   O51     2.190   .     S
Er41   O53     2.180   .     S
Er41   O55     2.177   1_554 S
Er41   O57     2.222   1_545 S
Er41   O58     2.195   1_544 S
Er41   O59     2.192   1_544 S
Er42   O50     2.154   .     S
Er42   O52     2.164   .     S
Er42   O56     2.153   .     S
Er42   O44     2.170   1_554 S
Er42   O49     2.225   1_554 S
C43    O57     1.285   .     A
C43    C171    1.482   .     S
C43    O56     1.266   1_565 A
O44    C54     1.273   .     A
O44    Er42    2.170   1_556 S
C45    O52     1.271   .     A
C45    O53     1.274   .     A
C45    C99     1.480   .     S
C46    O50     1.266   .     A
C46    O51     1.272   .     A
C46    C141    1.481   .     S
C47    O58     1.263   .     A
C47    O59     1.273   .     A
C47    C189    1.475   .     S
O49    Er42    2.225   1_556 S
C54    O55     1.274   .     A
C54    C105    1.480   .     S
O55    Er41    2.177   1_556 S
O56    C43     1.266   1_545 A
O57    Er41    2.222   1_565 S
O58    Er41    2.195   1_566 S
O59    Er41    2.192   1_566 S
C60    C61     1.406   .     A
C60    N65     1.363   .     A
C60    C66     1.484   .     S
C61    C62     1.392   .     A
C61    H76     1.080   .     S
C62    C63     1.401   .     A
C62    H72     1.083   .     S
C63    C64     1.405   .     A
C64    N65     1.361   .     A
C64    H73     1.082   .     S
C66    N67     1.364   .     A
C66    C71     1.405   .     A
N67    C68     1.362   .     A
C68    C69     1.404   .     A
C68    H74     1.082   .     S
C69    C70     1.402   .     A
C70    C71     1.391   .     A
C70    H75     1.083   .     S
C71    H77     1.080   .     S
C78    N83     1.363   .     A
C78    C84     1.483   .     S
C78    C79     1.406   1_455 A
C79    C80     1.392   .     A
C79    H94     1.080   .     S
C79    C78     1.406   1_655 A
C80    H90     1.083   .     S
C80    C81     1.401   1_655 A
C81    C82     1.404   .     A
C81    C80     1.401   1_455 A
C82    N83     1.361   .     A
C82    H91     1.082   .     S
C84    N85     1.364   .     A
C84    C89     1.405   1_455 A
N85    C86     1.362   .     A
C86    C87     1.404   .     A
C86    H92     1.083   .     S
C87    C88     1.403   1_455 A
C88    C89     1.392   .     A
C88    H93     1.083   .     S
C88    C87     1.403   1_655 A
C89    H95     1.081   .     S
C89    C84     1.405   1_655 A
C96    C97     1.405   .     A
C96    N101    1.364   .     A
C96    C102    1.485   .     S
C97    C98     1.392   .     A
C97    H112    1.081   .     S
C98    C99     1.403   .     A
C98    H108    1.083   .     S
C99    C100    1.404   .     A
C100   N101    1.362   .     A
C100   H109    1.082   .     S
C102   N103    1.363   .     A
C102   C107    1.406   .     A
N103   C104    1.361   .     A
C104   C105    1.405   .     A
C104   H110    1.082   .     S
C105   C106    1.402   .     A
C106   C107    1.394   .     A
C106   H111    1.083   .     S
C107   H113    1.081   .     S
C114   C115    1.407   .     A
C114   C120    1.485   .     S
C114   N119    1.363   1_556 A
C115   C116    1.392   .     A
C115   H130    1.080   .     S
C116   C117    1.399   .     A
C116   H126    1.081   .     S
C117   C118    1.403   1_556 A
C118   N119    1.362   .     A
C118   H127    1.082   .     S
C118   C117    1.403   1_554 A
N119   C114    1.363   1_554 A
C120   C125    1.405   .     A
C120   N121    1.365   1_556 A
N121   C122    1.364   .     A
N121   C120    1.365   1_554 A
C122   C123    1.403   .     A
C122   H128    1.082   .     S
C123   C124    1.401   1_554 A
C124   C125    1.390   .     A
C124   H129    1.083   .     S
C124   C123    1.401   1_556 A
C125   H131    1.080   .     S
C132   C133    1.403   .     A
C132   N137    1.363   .     A
C132   C138    1.480   .     S
C133   C134    1.391   .     A
C133   H148    1.083   .     S
C134   C135    1.403   .     A
C134   H144    1.083   .     S
C135   C136    1.405   .     A
C136   N137    1.363   .     A
C136   H145    1.082   .     S
C138   C143    1.403   .     A
C138   N139    1.363   1_556 A
N139   C140    1.364   .     A
N139   C138    1.363   1_554 A
C140   C141    1.405   .     A
C140   H146    1.082   .     S
C141   C142    1.404   1_554 A
C142   C143    1.391   .     A
C142   H147    1.083   .     S
C142   C141    1.404   1_556 A
C143   H149    1.082   .     S
C150   C151    1.402   .     A
C150   C156    1.477   .     S
C150   N155    1.363   1_556 A
C151   C152    1.393   .     A
C151   H166    1.082   .     S
C152   H162    1.083   .     S
C152   C153    1.404   1_556 A
C153   C154    1.403   .     A
C153   C152    1.404   1_554 A
C154   N155    1.361   .     A
C154   H163    1.082   .     S
N155   C150    1.363   1_554 A
C156   C161    1.405   .     A
C156   N157    1.360   1_556 A
N157   C156    1.360   1_554 A
N157   C158    1.359   1_554 A
C158   C159    1.404   .     A
C158   N157    1.359   1_556 A
C158   H164    1.082   1_556 S
C159   C160    1.402   .     A
C160   C161    1.397   .     A
C160   H165    1.083   .     S
C161   H167    1.082   .     S
H164   C158    1.082   1_554 S
C168   N173    1.362   .     A
C168   C174    1.486   .     S
C168   C169    1.407   1_556 A
C169   C170    1.394   .     A
C169   H184    1.079   .     S
C169   C168    1.407   1_554 A
C170   C171    1.403   .     A
C170   H180    1.083   .     S
C171   C172    1.402   1_554 A
C172   N173    1.361   .     A
C172   H181    1.077   .     S
C172   C171    1.402   1_556 A
C174   N175    1.364   .     A
C174   C179    1.407   1_556 A
N175   C176    1.361   .     A
C176   C177    1.401   .     A
C176   H182    1.082   .     S
C177   C178    1.400   1_556 A
C178   C179    1.393   .     A
C178   H183    1.084   .     S
C178   C177    1.400   1_554 A
C179   H185    1.079   .     S
C179   C174    1.407   1_554 A
C186   C187    1.403   .     A
C186   N191    1.363   .     A
C186   C192    1.479   .     S
C187   C188    1.391   .     A
C187   H202    1.083   .     S
C188   C189    1.399   .     A
C188   H198    1.079   .     S
C189   C190    1.404   .     A
C190   N191    1.363   .     A
C190   H199    1.083   .     S
C192   C197    1.403   .     A
C192   N193    1.363   1_556 A
N193   C194    1.363   .     A
N193   C192    1.363   1_554 A
C194   C195    1.405   .     A
C194   H200    1.082   .     S
C195   C196    1.401   1_554 A
C196   C197    1.391   .     A
C196   H201    1.081   .     S
C196   C195    1.401   1_556 A
C197   H203    1.083   .     S
C204   N209    1.361   .     A
C204   C210    1.476   .     S
C204   C205    1.404   1_556 A
C205   C206    1.395   .     A
C205   H220    1.082   .     S
C205   C204    1.404   1_554 A
C206   C207    1.402   .     A
C206   H216    1.083   .     S
C207   C208    1.404   .     A
C208   H217    1.082   .     S
C208   N209    1.360   1_554 A
N209   C208    1.360   1_556 A
C210   N211    1.362   .     A
C210   C215    1.403   .     A
N211   C212    1.361   .     A
C212   C213    1.403   .     A
C212   H218    1.083   .     S
C213   C214    1.402   .     A
C214   C215    1.393   .     A
C214   H219    1.083   .     S
C215   H221    1.083   .     S
