data_kag+N505+E191
_audit_creation_date              2025-01-21
_audit_creation_method            'Materials Studio'
_symmetry_space_group_name_H-M    'P1'
_symmetry_Int_Tables_number       1
_symmetry_cell_setting            triclinic
loop_
_symmetry_equiv_pos_as_xyz
  x,y,z
_cell_length_a                    36.1111
_cell_length_b                    31.1412
_cell_length_c                    19.3896
_cell_angle_alpha                 86.7646
_cell_angle_beta                  86.8242
_cell_angle_gamma                 106.9001
loop_
_atom_site_label
_atom_site_type_symbol
_atom_site_fract_x
_atom_site_fract_y
_atom_site_fract_z
_atom_site_U_iso_or_equiv
_atom_site_adp_type
_atom_site_occupancy
Yb0    Yb    0.55501   0.50731   0.92720   0.00000  Uiso   1.00
Yb1    Yb    0.44626   0.49373   0.07994   0.00000  Uiso   1.00
C2     C     0.38576   0.50725   0.04480   0.00000  Uiso   1.00
O3     O     0.51552   0.47967   0.85448   0.00000  Uiso   1.00
O4     O     0.57371   0.52533   0.82243   0.00000  Uiso   1.00
O5     O     0.53243   0.56420  -0.06698   0.00000  Uiso   1.00
O6     O     0.47719   0.52061   0.98135   0.00000  Uiso   1.00
O7     O     0.59031   0.46401   0.93119   0.00000  Uiso   1.00
O8     O     0.60685   0.53000  -0.02510   0.00000  Uiso   1.00
O9     O     0.48567   0.52160   0.15261   0.00000  Uiso   1.00
O10    O     0.42748   0.47580   0.18454   0.00000  Uiso   1.00
C11    C     0.54049   0.50126   0.80479   0.00000  Uiso   1.00
O12    O     0.52418   0.48079   0.02593   0.00000  Uiso   1.00
O13    O     0.46909   0.43694   1.07437   0.00000  Uiso   1.00
O14    O     0.41092   0.53692   0.07581   0.00000  Uiso   1.00
C15    C     0.50020   0.55998  -0.03316   0.00000  Uiso   1.00
O16    O     0.39434   0.47089   1.03227   0.00000  Uiso   1.00
C17    C     0.61548   0.49371   0.96211   0.00000  Uiso   1.00
C18    C     0.46060   0.50014   0.20223   0.00000  Uiso   1.00
C19    C     0.50138   0.44137   0.04061   0.00000  Uiso   1.00
Yb20   Yb    0.03444   0.56002   0.92155   0.00000  Uiso   1.00
Yb21   Yb    0.96759   0.44282   0.07830   0.00000  Uiso   1.00
C22    C     0.90784   0.38433   0.05590   0.00000  Uiso   1.00
O23    O     0.02383   0.51098   0.84872   0.00000  Uiso   1.00
O24    O     1.03239   0.58251   0.81837   0.00000  Uiso   1.00
O25    O     0.97256   0.54877   0.94116   0.00000  Uiso   1.00
O26    O     0.96836   0.48039   0.98085   0.00000  Uiso   1.00
O27    O     0.09503   0.58370   0.90989   0.00000  Uiso   1.00
O28    O     0.06081   0.62124  -0.03587   0.00000  Uiso   1.00
O29    O     0.97772   0.49127   0.15197   0.00000  Uiso   1.00
O30    O    -0.03044   0.41964   0.18117   0.00000  Uiso   1.00
C31    C     1.02552   0.54184   0.80019   0.00000  Uiso   1.00
O32    O     0.03391   0.52305   0.01959   0.00000  Uiso   1.00
O33    O     0.02944   0.45449   0.05914   0.00000  Uiso   1.00
O34    O     0.90706   0.41875   0.08937   0.00000  Uiso   1.00
C35    C     0.95203   0.51094   0.97001   0.00000  Uiso   1.00
O36    O     0.94168   0.38198   1.03434   0.00000  Uiso   1.00
C37    C     0.09454   0.61848   0.94268   0.00000  Uiso   1.00
C38    C    -0.02383   0.46014   0.19998   0.00000  Uiso   1.00
C39    C     0.05009   0.49235   0.03061   0.00000  Uiso   1.00
Yb40   Yb    0.44834   0.96613   0.07823   0.00000  Uiso   1.00
Yb41   Yb    0.55439   0.03567   0.92133   0.00000  Uiso   1.00
C42    C     0.61116   0.09687   0.94790   0.00000  Uiso   1.00
O43    O     0.48906   0.96985   0.15276   0.00000  Uiso   1.00
O44    O     0.42908  -0.03084   0.18134   0.00000  Uiso   1.00
O45    O     0.46597   0.03878   0.06163   0.00000  Uiso   1.00
O46    O     0.52278   0.03778   0.01822   0.00000  Uiso   1.00
O47    O     0.41869   0.89699   0.08484   0.00000  Uiso   1.00
O48    O     0.39574   0.94692   1.03145   0.00000  Uiso   1.00
O49    O     0.51375   0.03130   0.84657   0.00000  Uiso   1.00
O50    O     0.57390   1.03233   0.81857   0.00000  Uiso   1.00
C51    C     0.46321  -0.02865   0.20066   0.00000  Uiso   1.00
O52    O     0.47997   0.96403   0.98132   0.00000  Uiso   1.00
O53    O     0.53698   0.96310   0.93864   0.00000  Uiso   1.00
O54    O     0.58379   0.10492   0.91393   0.00000  Uiso   1.00
C55    C     0.49855   0.05957   0.02956   0.00000  Uiso   1.00
O56    O     0.60691   0.05535  -0.03204   0.00000  Uiso   1.00
C57    C     0.39143   0.90528   0.05077   0.00000  Uiso   1.00
C58    C     0.53977   1.02978   0.79896   0.00000  Uiso   1.00
C59    C     0.50433   0.94232   0.97048   0.00000  Uiso   1.00
Ni60   Ni    0.49995   0.50106   0.50374   0.00000  Uiso   1.00
C61    C     0.46955   0.50243   0.27557   0.00000  Uiso   1.00
C62    C     0.44165   0.47866   0.32815   0.00000  Uiso   1.00
C63    C     0.45127   0.47903   0.39696   0.00000  Uiso   1.00
C64    C     0.51474   0.52647   0.36328   0.00000  Uiso   1.00
C65    C     0.50635   0.52708   0.29379   0.00000  Uiso   1.00
H66    H     0.47237   0.45545   0.75288   0.00000  Uiso   1.00
H67    H     0.58760   0.54296   0.69027   0.00000  Uiso   1.00
H68    H     0.56972   0.54239   0.56922   0.00000  Uiso   1.00
H69    H     0.45706   0.45686   0.63037   0.00000  Uiso   1.00
N70    N     0.51260   0.49981   0.59444   0.00000  Uiso   1.00
N71    N     0.48742   0.50237   0.41299   0.00000  Uiso   1.00
H72    H     0.41282   0.45967   0.31614   0.00000  Uiso   1.00
H73    H     0.42999   0.46038   0.43759   0.00000  Uiso   1.00
H74    H     0.54318   0.54493   0.37769   0.00000  Uiso   1.00
H75    H     0.52852   0.54622   0.25479   0.00000  Uiso   1.00
C76    C     0.53122   0.49944   0.73150   0.00000  Uiso   1.00
C77    C     0.55876   0.52370   0.67868   0.00000  Uiso   1.00
C78    C     0.54874   0.52345   0.61006   0.00000  Uiso   1.00
C79    C     0.48555   0.47547   0.64438   0.00000  Uiso   1.00
C80    C     0.49433   0.47475   0.71368   0.00000  Uiso   1.00
Ni81   Ni    0.00083   0.50052   0.50019   0.00000  Uiso   1.00
C82    C     1.01961   0.53146   0.72755   0.00000  Uiso   1.00
C83    C     1.01416   0.56406   0.67936   0.00000  Uiso   1.00
C84    C     1.00839   0.55390   0.61087   0.00000  Uiso   1.00
C85    C     0.01366   0.48058   0.63621   0.00000  Uiso   1.00
C86    C     0.01926   0.48917   0.70545   0.00000  Uiso   1.00
H87    H     0.97195   0.53556   0.26247   0.00000  Uiso   1.00
H88    H    -0.00646   0.40722   0.30246   0.00000  Uiso   1.00
H89    H     0.00356   0.42493   0.42372   0.00000  Uiso   1.00
H90    H     0.98197   0.55015   0.38511   0.00000  Uiso   1.00
N91    N    -0.00665   0.48835   0.40954   0.00000  Uiso   1.00
N92    N     1.00830   0.51277   0.59083   0.00000  Uiso   1.00
H93    H     1.01406   0.59696   0.69453   0.00000  Uiso   1.00
H94    H     1.00398   0.57882   0.57354   0.00000  Uiso   1.00
H95    H     0.01364   0.44826   0.61842   0.00000  Uiso   1.00
H96    H     0.02358   0.46322   0.74096   0.00000  Uiso   1.00
C97    C    -0.01798   0.47012   0.27272   0.00000  Uiso   1.00
C98    C    -0.00921   0.43884   0.31915   0.00000  Uiso   1.00
C99    C    -0.00346   0.44877   0.38773   0.00000  Uiso   1.00
C100   C     0.98464   0.51914   0.36589   0.00000  Uiso   1.00
C101   C     0.97902   0.51078   0.29660   0.00000  Uiso   1.00
Ni102  Ni    0.50185   0.00011   0.49979   0.00000  Uiso   1.00
C103   C     0.47231  -0.02371   0.27374   0.00000  Uiso   1.00
C104   C     0.50989  -0.01982   0.29353   0.00000  Uiso   1.00
C105   C     0.51814  -0.01307   0.36241   0.00000  Uiso   1.00
C106   C     0.45319  -0.01469   0.39246   0.00000  Uiso   1.00
C107   C     0.44368  -0.02141   0.32422   0.00000  Uiso   1.00
H108   H     0.58892   0.02474   0.68944   0.00000  Uiso   1.00
H109   H     0.47044   1.02226   0.74275   0.00000  Uiso   1.00
H110   H     0.45638   1.00974   0.62106   0.00000  Uiso   1.00
H111   H     0.57222   0.01213   0.56908   0.00000  Uiso   1.00
N112   N     0.51366   1.01060   0.58966   0.00000  Uiso   1.00
N113   N     0.48994  -0.01038   0.40995   0.00000  Uiso   1.00
H114   H     0.53277  -0.02141   0.25614   0.00000  Uiso   1.00
H115   H     0.54712  -0.00960   0.37794   0.00000  Uiso   1.00
H116   H     0.43133   0.98748   0.43146   0.00000  Uiso   1.00
H117   H     0.41436   0.97575   0.31104   0.00000  Uiso   1.00
C118   C     0.53090   1.02447   0.72591   0.00000  Uiso   1.00
C119   C     0.49340   1.02048   0.70568   0.00000  Uiso   1.00
C120   C     0.48534   1.01343   0.63685   0.00000  Uiso   1.00
C121   C     0.55032   0.01477   0.60764   0.00000  Uiso   1.00
C122   C     0.55965   1.02187   0.67587   0.00000  Uiso   1.00
Ni123  Ni    0.22279   0.51524   0.00186   0.00000  Uiso   1.00
C124   C     0.34838   0.51341   0.02649   0.00000  Uiso   1.00
C125   C     0.32331   0.48130  -0.01087   0.00000  Uiso   1.00
C126   C     0.28613   0.48414  -0.02078   0.00000  Uiso   1.00
C127   C     0.29836   0.55060   0.03907   0.00000  Uiso   1.00
C128   C     0.33600   0.54918   0.04990   0.00000  Uiso   1.00
H129   H     0.08621   0.43533  -0.02595   0.00000  Uiso   1.00
H130   H     0.10844   0.56547   0.05655   0.00000  Uiso   1.00
H131   H     0.17879   0.57479   0.04079   0.00000  Uiso   1.00
H132   H     0.15706   0.44651  -0.03731   0.00000  Uiso   1.00
N133   N     0.17105   0.51140   0.00004   0.00000  Uiso   1.00
N134   N     0.27418   0.51784   0.00530   0.00000  Uiso   1.00
H135   H     0.33192   0.45348   0.96957   0.00000  Uiso   1.00
H136   H     0.26617   0.45850   0.95284   0.00000  Uiso   1.00
H137   H     0.28793   0.57690   0.05961   0.00000  Uiso   1.00
H138   H     0.35462   0.57478   0.07845   0.00000  Uiso   1.00
C139   C     0.09192   0.50036   0.01394   0.00000  Uiso   1.00
C140   C     0.11845   0.53977   0.03291   0.00000  Uiso   1.00
C141   C     0.15821   0.54489   0.02484   0.00000  Uiso   1.00
C142   C     0.14599   0.47296  -0.01915   0.00000  Uiso   1.00
C143   C     0.10597   0.46663  -0.01248   0.00000  Uiso   1.00
Ni144  Ni    0.75769   0.24344   0.00177   0.00000  Uiso   1.00
C145   C     0.87159   0.35003   0.04238   0.00000  Uiso   1.00
C146   C     0.87238   0.31279   0.00545   0.00000  Uiso   1.00
C147   C     0.83746   0.28117  -0.00682   0.00000  Uiso   1.00
C148   C     0.80141   0.32221   0.05256   0.00000  Uiso   1.00
C149   C     0.83555   0.35453   0.06612   0.00000  Uiso   1.00
H150   H     0.67401   0.08777   1.01180   0.00000  Uiso   1.00
H151   H     0.62705   0.18796   0.91794   0.00000  Uiso   1.00
H152   H     0.68710   0.24651  -0.05933   0.00000  Uiso   1.00
H153   H     0.73274   0.14833   1.03229   0.00000  Uiso   1.00
N154   N     0.71261   0.19995   0.98707   0.00000  Uiso   1.00
N155   N     0.80301   0.28647   0.01675   0.00000  Uiso   1.00
H156   H     0.89959   0.30804  -0.01347   0.00000  Uiso   1.00
H157   H     0.83773   0.25216  -0.03478   0.00000  Uiso   1.00
H158   H     0.77357   0.32541   0.07094   0.00000  Uiso   1.00
H159   H     0.83374   0.38274   0.09491   0.00000  Uiso   1.00
C160   C     0.64587   0.13303   0.96271   0.00000  Uiso   1.00
C161   C     0.64978   0.17833   0.94310   0.00000  Uiso   1.00
C162   C     0.68369   0.21153   0.95590   0.00000  Uiso   1.00
C163   C     0.70929   0.15645   1.00738   0.00000  Uiso   1.00
C164   C     0.67598   0.12229   0.99572   0.00000  Uiso   1.00
Ni165  Ni    0.77909   0.48717   1.00220   0.00000  Uiso   1.00
C166   C     0.91020   0.50273   0.98730   0.00000  Uiso   1.00
C167   C     0.89612   0.53608   0.01490   0.00000  Uiso   1.00
C168   C     0.85608   0.52961   0.02214   0.00000  Uiso   1.00
C169   C     0.84391   0.45836   0.97592   0.00000  Uiso   1.00
C170   C     0.88367   0.46348   0.96776   0.00000  Uiso   1.00
H171   H     0.66926   0.54773   0.03700   0.00000  Uiso   1.00
H172   H     0.64734   0.42710   0.92655   0.00000  Uiso   1.00
H173   H     0.71409   0.42536   0.94530   0.00000  Uiso   1.00
H174   H     0.73506   0.54303   0.05380   0.00000  Uiso   1.00
N175   N     0.72747   0.48400   1.00049   0.00000  Uiso   1.00
N176   N     0.83101   0.49141   1.00216   0.00000  Uiso   1.00
H177   H     0.91585   0.56718   0.02915   0.00000  Uiso   1.00
H178   H     0.84498   0.55575   0.04139   0.00000  Uiso   1.00
H179   H     0.82338   0.42878   0.95897   0.00000  Uiso   1.00
H180   H     0.89365   0.43785   0.94387   0.00000  Uiso   1.00
C181   C     0.65301   0.48782   0.98000   0.00000  Uiso   1.00
C182   C     0.66570   0.45245   0.95581   0.00000  Uiso   1.00
C183   C     0.70343   0.45130   0.96646   0.00000  Uiso   1.00
C184   C     0.71525   0.51737   0.02723   0.00000  Uiso   1.00
C185   C     0.67798   0.51996   0.01746   0.00000  Uiso   1.00
Ni186  Ni    0.24521   0.75898   0.99496   0.00000  Uiso   1.00
C187   C     0.35690   0.86919   0.03502   0.00000  Uiso   1.00
C188   C     0.32689   0.87996   0.00164   0.00000  Uiso   1.00
C189   C     0.29373   0.84578  -0.01065   0.00000  Uiso   1.00
C190   C     0.31924   0.79062   0.04082   0.00000  Uiso   1.00
C191   C     0.35299   0.82382   0.05427   0.00000  Uiso   1.00
H192   H     0.10324   0.69509   1.01120   0.00000  Uiso   1.00
H193   H     0.16853   0.61920   0.90419   0.00000  Uiso   1.00
H194   H     0.22891   0.67660   0.92715   0.00000  Uiso   1.00
H195   H     0.16527   0.75093   1.03164   0.00000  Uiso   1.00
N196   N     0.19971   0.71616   0.98039   0.00000  Uiso   1.00
N197   N     0.29044   0.80226   0.00934   0.00000  Uiso   1.00
H198   H     0.32874   0.91450  -0.01395   0.00000  Uiso   1.00
H199   H     0.27025   0.85388  -0.03549   0.00000  Uiso   1.00
H200   H     0.31576   0.75563   0.05611   0.00000  Uiso   1.00
H201   H     0.37555   0.81416   0.07999   0.00000  Uiso   1.00
C202   C     0.13093   0.65269   0.95567   0.00000  Uiso   1.00
C203   C     0.16687   0.64779   0.93218   0.00000  Uiso   1.00
C204   C     0.20112   0.68010   0.94523   0.00000  Uiso   1.00
C205   C     0.16538   0.72178   1.00390   0.00000  Uiso   1.00
C206   C     0.13036   0.69019   0.99211   0.00000  Uiso   1.00
Ni207  Ni    0.48506   0.74346   1.01777   0.00000  Uiso   1.00
C208   C     0.49619   0.89450   0.99412   0.00000  Uiso   1.00
C209   C     0.52528   0.87927   0.02287   0.00000  Uiso   1.00
C210   C     0.51993   0.83313   0.03388   0.00000  Uiso   1.00
C211   C     0.45755   0.81689   0.99076   0.00000  Uiso   1.00
C212   C     0.46181   0.86284   0.97855   0.00000  Uiso   1.00
H213   H     0.54799   0.62445   0.03511   0.00000  Uiso   1.00
H214   H     0.43614   0.58844   0.94984   0.00000  Uiso   1.00
H215   H     0.43060   0.66384   0.97304   0.00000  Uiso   1.00
H216   H     0.54000   0.69871   0.05693   0.00000  Uiso   1.00
N217   N     0.48486   0.68438   1.01658   0.00000  Uiso   1.00
N218   N     0.48675   0.80310   1.01679   0.00000  Uiso   1.00
H219   H     0.55246   0.90281   0.03421   0.00000  Uiso   1.00
H220   H     0.54301   0.82110   0.05288   0.00000  Uiso   1.00
H221   H     0.43183   0.79220   0.97622   0.00000  Uiso   1.00
H222   H     0.43946   0.87346   0.95376   0.00000  Uiso   1.00
C223   C     0.49231   0.60041   0.99180   0.00000  Uiso   1.00
C224   C     0.45865   0.61144   0.97566   0.00000  Uiso   1.00
C225   C     0.45550   0.65406   0.98857   0.00000  Uiso   1.00
C226   C     0.51696   0.67370   0.03548   0.00000  Uiso   1.00
C227   C     0.52142   0.63176   0.02299   0.00000  Uiso   1.00
Ni228  Ni    0.51726   0.25855  -0.01368   0.00000  Uiso   1.00
C229   C     0.50951   0.40121   0.01528   0.00000  Uiso   1.00
C230   C     0.48083   0.37039  -0.01748   0.00000  Uiso   1.00
C231   C     0.48537   0.32855  -0.03049   0.00000  Uiso   1.00
C232   C     0.54623   0.34749   1.01864   0.00000  Uiso   1.00
C233   C     0.54295   0.38997   1.03225   0.00000  Uiso   1.00
H234   H     0.45035   0.09926  -0.03316   0.00000  Uiso   1.00
H235   H     0.56372   0.12834   1.04575   0.00000  Uiso   1.00
H236   H     0.57073   0.20963   1.02628   0.00000  Uiso   1.00
H237   H     0.45978   0.18102  -0.05133   0.00000  Uiso   1.00
N238   N     0.51580   0.19895  -0.01424   0.00000  Uiso   1.00
N239   N     0.51726   0.31758  -0.01101   0.00000  Uiso   1.00
H240   H     0.45444   0.37796  -0.03019   0.00000  Uiso   1.00
H241   H     0.46244   0.30380  -0.05270   0.00000  Uiso   1.00
H242   H     0.57081   0.33741   1.03509   0.00000  Uiso   1.00
H243   H     0.56511   0.41264   1.05930   0.00000  Uiso   1.00
C244   C     0.50672   0.10747   0.00636   0.00000  Uiso   1.00
C245   C     0.54114   0.13906   1.02193   0.00000  Uiso   1.00
C246   C     0.54512   0.18506   1.01119   0.00000  Uiso   1.00
C247   C     0.48281   0.16898  -0.03217   0.00000  Uiso   1.00
C248   C     0.47753   0.12280  -0.02179   0.00000  Uiso   1.00
loop_
_geom_bond_atom_site_label_1
_geom_bond_atom_site_label_2
_geom_bond_distance
_geom_bond_site_symmetry_2
_ccdc_geom_bond_type
Yb0    O3      2.100   .     S
Yb0    O4      2.097   .     S
Yb0    O7      2.109   .     S
Yb0    O5      2.161   1_556 S
Yb0    O8      2.087   1_556 S
Yb0    O12     2.154   1_556 S
Yb1    O9      2.099   .     S
Yb1    O10     2.094   .     S
Yb1    O14     2.107   .     S
Yb1    O6      2.154   1_554 S
Yb1    O13     2.163   1_554 S
Yb1    O16     2.089   1_554 S
C2     O14     1.295   .     A
C2     C124    1.477   .     S
C2     O16     1.290   1_554 A
O3     C11     1.293   .     A
O4     C11     1.292   .     A
O5     C15     1.272   .     A
O5     Yb0     2.161   1_554 S
O6     Yb1     2.154   1_556 S
O6     C15     1.271   1_556 A
O7     C17     1.295   .     A
O8     Yb0     2.087   1_554 S
O8     C17     1.290   1_554 A
O9     C18     1.293   .     A
O10    C18     1.292   .     A
C11    C76     1.478   .     S
O12    C19     1.270   .     A
O12    Yb0     2.154   1_554 S
O13    Yb1     2.163   1_556 S
O13    C19     1.272   1_556 A
C15    O6      1.271   1_554 A
C15    C223    1.471   1_554 S
O16    Yb1     2.089   1_556 S
O16    C2      1.290   1_556 A
C17    C181    1.476   .     S
C17    O8      1.290   1_556 A
C18    C61     1.477   .     S
C19    C229    1.469   .     S
C19    O13     1.272   1_554 A
Yb20   O23     2.106   .     S
Yb20   O27     2.091   .     S
Yb20   O24     2.094   1_455 S
Yb20   O25     2.167   1_455 S
Yb20   O28     2.105   1_556 S
Yb20   O32     2.162   1_556 S
Yb21   O29     2.105   .     S
Yb21   O34     2.089   .     S
Yb21   O26     2.160   1_554 S
Yb21   O30     2.095   1_655 S
Yb21   O33     2.163   1_655 S
Yb21   O36     2.105   1_554 S
C22    O34     1.290   .     A
C22    C145    1.476   .     S
C22    O36     1.293   1_554 A
O23    C31     1.292   1_455 A
O24    C31     1.291   .     A
O24    Yb20    2.094   1_655 S
O25    C35     1.274   .     A
O25    Yb20    2.167   1_655 S
O26    C35     1.271   .     A
O26    Yb21    2.160   1_556 S
O27    C37     1.290   .     A
O28    Yb20    2.105   1_554 S
O28    C37     1.293   1_554 A
O29    C38     1.292   1_655 A
O30    C38     1.291   .     A
O30    Yb21    2.095   1_455 S
C31    C82     1.476   .     S
C31    O23     1.292   1_655 A
O32    C39     1.271   .     A
O32    Yb20    2.162   1_554 S
O33    C39     1.273   .     A
O33    Yb21    2.163   1_455 S
C35    C166    1.473   .     S
O36    Yb21    2.105   1_556 S
O36    C22     1.293   1_556 A
C37    C202    1.476   .     S
C37    O28     1.293   1_556 A
C38    C97     1.475   .     S
C38    O29     1.292   1_455 A
C39    C139    1.472   .     S
Yb40   O43     2.102   .     S
Yb40   O47     2.101   .     S
Yb40   O44     2.096   1_565 S
Yb40   O45     2.164   1_565 S
Yb40   O48     2.093   1_554 S
Yb40   O52     2.158   1_554 S
Yb41   O49     2.101   .     S
Yb41   O54     2.102   .     S
Yb41   O46     2.158   1_556 S
Yb41   O50     2.095   1_545 S
Yb41   O53     2.163   1_545 S
Yb41   O56     2.090   1_556 S
C42    O54     1.293   .     A
C42    C160    1.476   .     S
C42    O56     1.291   1_556 A
O43    C51     1.293   1_565 A
O44    C51     1.292   .     A
O44    Yb40    2.096   1_545 S
O45    C55     1.273   .     A
O45    Yb40    2.164   1_545 S
O46    C55     1.271   .     A
O46    Yb41    2.158   1_554 S
O47    C57     1.293   .     A
O48    Yb40    2.093   1_556 S
O48    C57     1.291   1_556 A
O49    C58     1.293   1_545 A
O50    C58     1.292   .     A
O50    Yb41    2.095   1_565 S
C51    C103    1.478   .     S
C51    O43     1.293   1_545 A
O52    C59     1.271   .     A
O52    Yb40    2.158   1_556 S
O53    C59     1.273   .     A
O53    Yb41    2.163   1_565 S
C55    C244    1.472   .     S
O56    Yb41    2.090   1_554 S
O56    C42     1.291   1_554 A
C57    C187    1.476   .     S
C57    O48     1.291   1_554 A
C58    C118    1.477   .     S
C58    O49     1.293   1_565 A
C59    C208    1.472   .     S
Ni60   N70     1.842   .     S
Ni60   N71     1.842   .     S
C61    C62     1.403   .     A
C61    C65     1.403   .     A
C62    C63     1.397   .     A
C62    H72     1.083   .     S
C63    N71     1.359   .     A
C63    H73     1.082   .     S
C64    C65     1.398   .     A
C64    N71     1.359   .     A
C64    H74     1.081   .     S
C65    H75     1.083   .     S
H66    C80     1.083   .     S
H67    C77     1.083   .     S
H68    C78     1.082   .     S
H69    C79     1.082   .     S
N70    C78     1.359   .     A
N70    C79     1.359   .     A
C76    C77     1.404   .     A
C76    C80     1.404   .     A
C77    C78     1.398   .     A
C79    C80     1.398   .     A
Ni81   N91     1.837   .     S
Ni81   N92     1.837   1_455 S
C82    C83     1.404   .     A
C82    C86     1.404   1_655 A
C83    C84     1.395   .     A
C83    H93     1.083   .     S
C84    N92     1.359   .     A
C84    H94     1.083   .     S
C85    C86     1.398   .     A
C85    H95     1.082   .     S
C85    N92     1.360   1_455 A
C86    H96     1.084   .     S
C86    C82     1.404   1_455 A
H87    C101    1.083   .     S
H88    C98     1.083   .     S
H89    C99     1.083   .     S
H90    C100    1.082   .     S
N91    C99     1.359   .     A
N91    C100    1.359   1_455 A
N92    Ni81    1.837   1_655 S
N92    C85     1.360   1_655 A
C97    C98     1.404   .     A
C97    C101    1.404   1_455 A
C98    C99     1.395   .     A
C100   C101    1.397   .     A
C100   N91     1.359   1_655 A
C101   C97     1.404   1_655 A
Ni102  N113    1.842   .     S
Ni102  N112    1.841   1_545 S
C103   C104    1.404   .     A
C103   C107    1.404   .     A
C104   C105    1.399   .     A
C104   H114    1.083   .     S
C105   N113    1.359   .     A
C105   H115    1.082   .     S
C106   C107    1.397   .     A
C106   N113    1.359   .     A
C106   H116    1.082   1_545 S
C107   H117    1.083   1_545 S
H108   C122    1.083   1_545 S
H109   C119    1.083   .     S
H110   C120    1.082   .     S
H111   C121    1.082   .     S
N112   C120    1.360   .     A
N112   Ni102   1.841   1_565 S
N112   C121    1.359   1_565 A
H116   C106    1.082   1_565 S
H117   C107    1.083   1_565 S
C118   C119    1.404   .     A
C118   C122    1.404   .     A
C119   C120    1.398   .     A
C121   N112    1.359   1_545 A
C121   C122    1.397   1_545 A
C122   H108    1.083   1_565 S
C122   C121    1.397   1_565 A
Ni123  N133    1.840   .     S
Ni123  N134    1.839   .     S
C124   C125    1.404   .     A
C124   C128    1.404   .     A
C125   C126    1.394   .     A
C125   H135    1.082   1_554 S
C126   N134    1.357   .     A
C126   H136    1.082   1_554 S
C127   C128    1.400   .     A
C127   N134    1.361   .     A
C127   H137    1.082   .     S
C128   H138    1.083   .     S
H129   C143    1.083   .     S
H130   C140    1.083   .     S
H131   C141    1.082   .     S
H132   C142    1.082   .     S
N133   C141    1.359   .     A
N133   C142    1.359   .     A
H135   C125    1.082   1_556 S
H136   C126    1.082   1_556 S
C139   C140    1.402   .     A
C139   C143    1.402   .     A
C140   C141    1.396   .     A
C142   C143    1.398   .     A
Ni144  N155    1.838   .     S
Ni144  N154    1.838   1_554 S
C145   C146    1.403   .     A
C145   C149    1.404   .     A
C146   C147    1.398   .     A
C146   H156    1.083   .     S
C147   N155    1.360   .     A
C147   H157    1.082   .     S
C148   C149    1.395   .     A
C148   N155    1.358   .     A
C148   H158    1.082   .     S
C149   H159    1.083   .     S
H150   C164    1.083   .     S
H151   C161    1.083   .     S
H152   C162    1.082   1_554 S
H153   C163    1.082   .     S
N154   C162    1.360   .     A
N154   C163    1.358   .     A
N154   Ni144   1.838   1_556 S
C160   C161    1.404   .     A
C160   C164    1.403   .     A
C161   C162    1.399   .     A
C162   H152    1.082   1_556 S
C163   C164    1.394   .     A
Ni165  N175    1.840   .     S
Ni165  N176    1.841   .     S
C166   C170    1.403   .     A
C166   C167    1.401   1_556 A
C167   C168    1.398   .     A
C167   H177    1.083   .     S
C167   C166    1.401   1_554 A
C168   H178    1.082   .     S
C168   N176    1.360   1_554 A
C169   C170    1.396   .     A
C169   N176    1.359   .     A
C169   H179    1.082   .     S
C170   H180    1.083   .     S
H171   C185    1.083   .     S
H172   C182    1.083   .     S
H173   C183    1.082   .     S
H174   C184    1.082   .     S
N175   C183    1.360   .     A
N175   C184    1.358   1_556 A
N176   C168    1.360   1_556 A
C181   C182    1.404   .     A
C181   C185    1.404   1_556 A
C182   C183    1.399   .     A
C184   C185    1.394   .     A
C184   N175    1.358   1_554 A
C185   C181    1.404   1_554 A
Ni186  N196    1.838   .     S
Ni186  N197    1.837   1_556 S
C187   C188    1.404   .     A
C187   C191    1.405   .     A
C188   C189    1.394   .     A
C188   H198    1.083   .     S
C189   N197    1.358   .     A
C189   H199    1.082   .     S
C190   C191    1.398   .     A
C190   N197    1.360   .     A
C190   H200    1.082   .     S
C191   H201    1.083   .     S
H192   C206    1.083   .     S
H193   C203    1.083   .     S
H194   C204    1.082   .     S
H195   C205    1.082   .     S
N196   C204    1.358   .     A
N196   C205    1.360   .     A
N197   Ni186   1.837   1_554 S
C202   C203    1.405   .     A
C202   C206    1.403   .     A
C203   C204    1.395   .     A
C205   C206    1.397   .     A
Ni207  N217    1.839   .     S
Ni207  N218    1.839   .     S
C208   C212    1.403   .     A
C208   C209    1.401   1_556 A
C209   C210    1.395   .     A
C209   H219    1.083   .     S
C209   C208    1.401   1_554 A
C210   H220    1.082   .     S
C210   N218    1.359   1_554 A
C211   C212    1.399   .     A
C211   N218    1.360   .     A
C211   H221    1.082   .     S
C212   H222    1.083   .     S
H213   C227    1.083   .     S
H214   C224    1.082   .     S
H215   C225    1.082   .     S
H216   C226    1.082   .     S
N217   C225    1.360   .     A
N217   C226    1.359   1_556 A
N218   C210    1.359   1_556 A
C223   C224    1.402   .     A
C223   C227    1.401   1_556 A
C223   C15     1.471   1_556 S
C224   C225    1.400   .     A
C226   C227    1.394   .     A
C226   N217    1.359   1_554 A
C227   C223    1.401   1_554 A
Ni228  N238    1.842   .     S
Ni228  N239    1.842   .     S
C229   C230    1.400   .     A
C229   C233    1.402   1_554 A
C230   C231    1.395   .     A
C230   H240    1.084   .     S
C231   N239    1.359   .     A
C231   H241    1.082   .     S
C232   C233    1.400   .     A
C232   H242    1.082   .     S
C232   N239    1.361   1_556 A
C233   H243    1.083   .     S
C233   C229    1.402   1_556 A
H234   C248    1.083   .     S
H235   C245    1.083   .     S
H236   C246    1.082   .     S
H237   C247    1.082   .     S
N238   C247    1.359   .     A
N238   C246    1.361   1_554 A
N239   C232    1.361   1_554 A
C244   C248    1.401   .     A
C244   C245    1.403   1_554 A
C245   C246    1.400   .     A
C245   C244    1.403   1_556 A
C246   N238    1.361   1_556 A
C247   C248    1.396   .     A
