data_kag+N123+E8
_audit_creation_date              2025-01-21
_audit_creation_method            'Materials Studio'
_symmetry_space_group_name_H-M    'P1'
_symmetry_Int_Tables_number       1
_symmetry_cell_setting            triclinic
loop_
_symmetry_equiv_pos_as_xyz
  x,y,z
_cell_length_a                    30.6968
_cell_length_b                    29.7415
_cell_length_c                    12.8127
_cell_angle_alpha                 98.8953
_cell_angle_beta                  79.7785
_cell_angle_gamma                 127.6065
loop_
_atom_site_label
_atom_site_type_symbol
_atom_site_fract_x
_atom_site_fract_y
_atom_site_fract_z
_atom_site_U_iso_or_equiv
_atom_site_adp_type
_atom_site_occupancy
Ce0    Ce    0.56395   0.54247  -0.01803   0.00000  Uiso   1.00
Ce1    Ce    0.43714   0.45916   1.01230   0.00000  Uiso   1.00
C2     C     0.45992   0.48167   0.21405   0.00000  Uiso   1.00
C3     C     0.64910   0.54415   0.01575   0.00000  Uiso   1.00
C4     C     0.50146   0.59936   1.01394   0.00000  Uiso   1.00
C5     C     0.53838   0.51810   0.78061   0.00000  Uiso   1.00
C6     C     0.35986   0.46496   0.95551   0.00000  Uiso   1.00
C7     C     0.50103   0.40286  -0.01751   0.00000  Uiso   1.00
O8     O     0.41253   0.44925   0.18913   0.00000  Uiso   1.00
O9     O     0.50148   0.50665   0.12954   0.00000  Uiso   1.00
O10    O     0.64566   0.58477   0.05141   0.00000  Uiso   1.00
O11    O     0.60640   0.50026   0.97415   0.00000  Uiso   1.00
O12    O     0.54928   0.60985   1.00097   0.00000  Uiso   1.00
O13    O     0.45508   0.54891   1.02417   0.00000  Uiso   1.00
O14    O     0.58642   0.55104   0.80216   0.00000  Uiso   1.00
O15    O     0.49952   0.49548   0.86947   0.00000  Uiso   1.00
O16    O     0.35911   0.42117   0.93000   0.00000  Uiso   1.00
O17    O     0.39934   0.50483   0.00947   0.00000  Uiso   1.00
O18    O     0.45300   0.39221  -0.00433   0.00000  Uiso   1.00
O19    O     0.54723   0.45371  -0.02754   0.00000  Uiso   1.00
Ce20   Ce    0.02895   0.47198   0.01739   0.00000  Uiso   1.00
Ce21   Ce    0.97568   0.52937   0.03501   0.00000  Uiso   1.00
C22    C     1.00933   0.53539   0.82764   0.00000  Uiso   1.00
C23    C     0.13216   0.50292   0.95926   0.00000  Uiso   1.00
C24    C     0.89827   0.39275  -0.01519   0.00000  Uiso   1.00
C25    C     0.00181   0.47101   0.22355   0.00000  Uiso   1.00
C26    C     0.91030   0.56155   0.05021   0.00000  Uiso   1.00
C27    C     0.10233   0.61344   1.06885   0.00000  Uiso   1.00
O28    O     0.98343   0.55365   0.86994   0.00000  Uiso   1.00
O29    O     1.01966   0.51079   0.89380   0.00000  Uiso   1.00
O30    O     0.09034   0.45836   0.91739   0.00000  Uiso   1.00
O31    O     0.12171   0.53415   0.02155   0.00000  Uiso   1.00
O32    O     0.94026   0.39280  -0.01276   0.00000  Uiso   1.00
O33    O     0.90060   0.43795   0.00203   0.00000  Uiso   1.00
O34    O     0.02383   0.44856   0.18075   0.00000  Uiso   1.00
O35    O    -0.00977   0.49449   0.15701   0.00000  Uiso   1.00
O36    O     0.92459   0.55609   0.13215   0.00000  Uiso   1.00
O37    O     0.93684   0.56109   0.96125   0.00000  Uiso   1.00
O38    O     0.06020   0.61235   1.06252   0.00000  Uiso   1.00
O39    O     0.10130   0.56847   1.05594   0.00000  Uiso   1.00
Ce40   Ce    0.51811   0.95750   0.98264   0.00000  Uiso   1.00
Ce41   Ce    0.48800   0.04452  -0.00342   0.00000  Uiso   1.00
C42    C     0.49558   0.01658   0.19091   0.00000  Uiso   1.00
C43    C     0.53498   0.87984   0.99579   0.00000  Uiso   1.00
C44    C     0.61864   0.09046   0.93895   0.00000  Uiso   1.00
C45    C     0.50939   0.98388   0.78716   0.00000  Uiso   1.00
C46    C     0.46907   0.12223   0.00128   0.00000  Uiso   1.00
C47    C     0.38788   0.91133   0.04351   0.00000  Uiso   1.00
O48    O     0.46039   0.02073   0.17694   0.00000  Uiso   1.00
O49    O     0.53054   0.02856   0.09959   0.00000  Uiso   1.00
O50    O     0.54927   0.92120   0.06458   0.00000  Uiso   1.00
O51    O     0.51672   0.88081   0.91422   0.00000  Uiso   1.00
O52    O     0.60588   0.04013   0.94359   0.00000  Uiso   1.00
O53    O     0.58296   0.10151  -0.05049   0.00000  Uiso   1.00
O54    O     0.54359   0.97827   0.80060   0.00000  Uiso   1.00
O55    O     0.47539   0.97348   0.87926   0.00000  Uiso   1.00
O56    O     0.45389   0.08253   0.92810   0.00000  Uiso   1.00
O57    O     0.49129   0.12072   0.07466   0.00000  Uiso   1.00
O58    O     0.40082   0.96165   0.03806   0.00000  Uiso   1.00
O59    O     0.42319   0.89977   1.03166   0.00000  Uiso   1.00
C60    C     0.49150   0.47358   0.47127   0.00000  Uiso   1.00
C61    C     0.50519   0.52511   0.52387   0.00000  Uiso   1.00
N62    N     0.50129   0.56000   0.47581   0.00000  Uiso   1.00
C63    C     0.48505   0.54604   0.37676   0.00000  Uiso   1.00
C64    C     0.47225   0.49504   0.32369   0.00000  Uiso   1.00
N65    N     0.47587   0.45995   0.37206   0.00000  Uiso   1.00
N66    N     0.49513   0.43863   0.51963   0.00000  Uiso   1.00
C67    C     0.51035   0.45213   0.61974   0.00000  Uiso   1.00
C68    C     0.52339   0.50318   0.67262   0.00000  Uiso   1.00
N69    N     0.52074   0.53866   0.62319   0.00000  Uiso   1.00
H70    H     0.48151   0.57423   0.34052   0.00000  Uiso   1.00
H71    H     0.51382   0.42396   0.65599   0.00000  Uiso   1.00
C72    C     0.99000   0.51313   0.54731   0.00000  Uiso   1.00
C73    C     0.02443   0.49700   0.50404   0.00000  Uiso   1.00
N74    N     0.05712   0.49922   0.56634   0.00000  Uiso   1.00
C75    C     0.05617   0.51595   0.67076   0.00000  Uiso   1.00
C76    C     0.02095   0.53086   0.71402   0.00000  Uiso   1.00
N77    N     0.98919   0.52983   0.65103   0.00000  Uiso   1.00
N78    N     0.95735   0.51100   0.48524   0.00000  Uiso   1.00
C79    C     0.95821   0.49427   0.38091   0.00000  Uiso   1.00
C80    C     0.99297   0.47872   0.33742   0.00000  Uiso   1.00
N81    N     0.02524   0.48024   0.39997   0.00000  Uiso   1.00
H82    H     0.08117   0.51558   0.72013   0.00000  Uiso   1.00
H83    H     0.93302   0.49460   0.33219   0.00000  Uiso   1.00
C84    C     0.47989   1.00002   0.48464   0.00000  Uiso   1.00
C85    C     0.52522   0.00080   0.49379   0.00000  Uiso   1.00
N86    N     0.55874   0.00504   0.40460   0.00000  Uiso   1.00
C87    C     0.54928   0.00878   0.30699   0.00000  Uiso   1.00
C88    C     0.50413   0.00838   0.29651   0.00000  Uiso   1.00
N89    N     0.47045   1.00395   0.38681   0.00000  Uiso   1.00
N90    N     0.44608   0.99543   0.57392   0.00000  Uiso   1.00
C91    C     0.45542   0.99151   0.67159   0.00000  Uiso   1.00
C92    C     0.50059   0.99173   0.68157   0.00000  Uiso   1.00
N93    N     0.53444  -0.00357   0.59131   0.00000  Uiso   1.00
H94    H     0.57733   0.01271   0.23857   0.00000  Uiso   1.00
H95    H     0.42711   0.98717   0.74089   0.00000  Uiso   1.00
C96    C     0.27244   0.51234  -0.02423   0.00000  Uiso   1.00
C97    C     0.24270   0.48352   0.88729   0.00000  Uiso   1.00
N98    N     0.25628   0.45384   0.81525   0.00000  Uiso   1.00
C99    C     0.29625   0.44944   0.83215   0.00000  Uiso   1.00
C100   C     0.31953   0.47105   0.92865   0.00000  Uiso   1.00
N101   N     0.30883   0.50423  -0.00443   0.00000  Uiso   1.00
N102   N     0.26169   0.54465   0.04458   0.00000  Uiso   1.00
C103   C     0.22010   0.54705   0.03274   0.00000  Uiso   1.00
C104   C     0.18601   0.51338  -0.04888   0.00000  Uiso   1.00
N105   N     0.19884   0.48311   0.87855   0.00000  Uiso   1.00
H106   H     0.31145   0.43120   0.77051   0.00000  Uiso   1.00
H107   H     0.21111   0.57152   0.09177   0.00000  Uiso   1.00
C108   C     0.78349   0.23803   0.94661   0.00000  Uiso   1.00
C109   C     0.74122   0.24029   0.92735   0.00000  Uiso   1.00
N110   N     0.75148   0.29118  -0.07713   0.00000  Uiso   1.00
C111   C     0.80218   0.34030  -0.06199   0.00000  Uiso   1.00
C112   C     0.84460   0.33891  -0.03964   0.00000  Uiso   1.00
N113   N     0.83431   0.28743  -0.03690   0.00000  Uiso   1.00
N114   N     0.77205   0.18652   0.95328   0.00000  Uiso   1.00
C115   C     0.71998   0.13745   0.94449   0.00000  Uiso   1.00
C116   C     0.67739   0.14005   0.92881   0.00000  Uiso   1.00
N117   N     0.68965   0.19171   0.91949   0.00000  Uiso   1.00
H118   H     0.80902   0.38024  -0.06548   0.00000  Uiso   1.00
H119   H     0.71144   0.09716   0.95410   0.00000  Uiso   1.00
C120   C     0.79685   0.55978   0.98395   0.00000  Uiso   1.00
C121   C     0.76533   0.54971   0.08370   0.00000  Uiso   1.00
N122   N     0.78106   0.54164   0.16747   0.00000  Uiso   1.00
C123   C     0.82827   0.54571   0.15674   0.00000  Uiso   1.00
C124   C     0.86268   0.56182   1.06044   0.00000  Uiso   1.00
N125   N     0.84481   0.56550   0.97429   0.00000  Uiso   1.00
N126   N     0.77813   0.56157   0.89735   0.00000  Uiso   1.00
C127   C     0.73032   0.55627   0.90732   0.00000  Uiso   1.00
C128   C     0.70064   0.55022   1.00827   0.00000  Uiso   1.00
N129   N     0.71841   0.54622   0.09430   0.00000  Uiso   1.00
H130   H     0.83709   0.53138   0.21811   0.00000  Uiso   1.00
H131   H     0.71599   0.55783   0.83753   0.00000  Uiso   1.00
C132   C     0.25987   0.76805   0.10513   0.00000  Uiso   1.00
C133   C     0.22139   0.76580   1.05504   0.00000  Uiso   1.00
N134   N     0.23697   0.81262   1.01023   0.00000  Uiso   1.00
C135   C     0.28973   0.86132   0.01108   0.00000  Uiso   1.00
C136   C     0.32889   0.86296   0.05740   0.00000  Uiso   1.00
N137   N     0.31287   0.81615   0.10365   0.00000  Uiso   1.00
N138   N     0.24416   0.72149   0.15130   0.00000  Uiso   1.00
C139   C     0.19215   0.67208   0.14650   0.00000  Uiso   1.00
C140   C     0.15485   0.66859   1.09020   0.00000  Uiso   1.00
N141   N     0.16997   0.71595   1.04758   0.00000  Uiso   1.00
H142   H     0.30143   0.89736  -0.02855   0.00000  Uiso   1.00
H143   H     0.18031   0.63541   0.18370   0.00000  Uiso   1.00
C144   C     0.51084   0.74082   0.96043   0.00000  Uiso   1.00
C145   C     0.52078   0.73631   1.05974   0.00000  Uiso   1.00
N146   N     0.53483   0.77881   1.13630   0.00000  Uiso   1.00
C147   C     0.54060   0.82605   1.11729   0.00000  Uiso   1.00
C148   C     0.53453   0.83234   1.01514   0.00000  Uiso   1.00
N149   N     0.51825   0.78859   0.94019   0.00000  Uiso   1.00
N150   N     0.49361   0.69706   0.88585   0.00000  Uiso   1.00
C151   C     0.48701   0.64951   0.90511   0.00000  Uiso   1.00
C152   C     0.49938   0.64601   1.00222   0.00000  Uiso   1.00
N153   N     0.51614   0.68965   1.07786   0.00000  Uiso   1.00
H154   H     0.54574   0.85618   1.18346   0.00000  Uiso   1.00
H155   H     0.47256   0.61447   0.84505   0.00000  Uiso   1.00
C156   C     0.45887   0.25585  -0.01651   0.00000  Uiso   1.00
C157   C     0.50924   0.26675  -0.00513   0.00000  Uiso   1.00
N158   N     0.55589   0.32086  -0.00236   0.00000  Uiso   1.00
C159   C     0.55445   0.36513  -0.00928   0.00000  Uiso   1.00
C160   C     0.50393   0.35496  -0.01796   0.00000  Uiso   1.00
N161   N     0.45720   0.30020   0.97820   0.00000  Uiso   1.00
N162   N     0.41233   0.20117   0.97891   0.00000  Uiso   1.00
C163   C     0.41420   0.15694  -0.01510   0.00000  Uiso   1.00
C164   C     0.46431   0.16796  -0.00154   0.00000  Uiso   1.00
N165   N     0.51067   0.22273   0.00291   0.00000  Uiso   1.00
H166   H     0.59221   0.40778  -0.00539   0.00000  Uiso   1.00
H167   H     0.37735   0.11361   0.97975   0.00000  Uiso   1.00
loop_
_geom_bond_atom_site_label_1
_geom_bond_atom_site_label_2
_geom_bond_distance
_geom_bond_site_symmetry_2
_ccdc_geom_bond_type
Ce0    O9      2.287   .     S
Ce0    O10     2.294   .     S
Ce0    O19     2.349   .     S
Ce0    O11     2.279   1_554 S
Ce0    O12     2.278   1_554 S
Ce0    O14     2.292   1_554 S
Ce0    O15     2.226   1_554 S
Ce1    O13     2.358   .     S
Ce1    O15     2.242   .     S
Ce1    O16     2.313   .     S
Ce1    O8      2.262   1_556 S
Ce1    O9      2.268   1_556 S
Ce1    O17     2.269   1_556 S
Ce1    O18     2.294   1_556 S
C2     O8      1.227   .     D
C2     O9      1.398   .     S
C2     C64     1.452   .     S
C3     O10     1.283   .     A
C3     O11     1.285   1_554 A
C3     C128    1.466   1_554 S
C4     O12     1.284   .     A
C4     O13     1.297   .     A
C4     C152    1.458   .     S
C5     O14     1.228   .     D
C5     O15     1.395   .     S
C5     C68     1.453   .     S
C6     O16     1.280   .     A
C6     C100    1.459   .     S
C6     O17     1.282   1_556 A
C7     O18     1.289   .     A
C7     O19     1.301   .     A
C7     C160    1.480   .     S
O8     Ce1     2.262   1_554 S
O9     Ce1     2.268   1_554 S
O11    Ce0     2.279   1_556 S
O11    C3      1.285   1_556 A
O12    Ce0     2.278   1_556 S
O14    Ce0     2.292   1_556 S
O15    Ce0     2.226   1_556 S
O17    Ce1     2.269   1_554 S
O17    C6      1.282   1_554 A
O18    Ce1     2.294   1_554 S
Ce20   O31     2.264   .     S
Ce20   O34     2.256   .     S
Ce20   O35     2.215   .     S
Ce20   O29     2.247   1_454 S
Ce20   O30     2.296   1_554 S
Ce20   O32     2.318   1_455 S
Ce20   O39     2.363   1_554 S
Ce21   O33     2.286   .     S
Ce21   O36     2.272   .     S
Ce21   O28     2.266   1_554 S
Ce21   O29     2.266   1_554 S
Ce21   O35     2.244   1_655 S
Ce21   O37     2.292   1_554 S
Ce21   O38     2.277   1_654 S
C22    O28     1.226   .     D
C22    O29     1.387   .     S
C22    C76     1.442   1_655 S
C23    O30     1.281   .     A
C23    O31     1.283   1_556 A
C23    C104    1.470   1_556 S
C24    O32     1.294   .     A
C24    O33     1.288   .     A
C24    C112    1.478   .     S
C25    O34     1.229   .     D
C25    O35     1.391   .     S
C25    C80     1.444   1_455 S
C26    O36     1.274   .     A
C26    O37     1.281   1_554 A
C26    C124    1.449   1_554 S
C27    O38     1.290   .     A
C27    O39     1.304   .     A
C27    C140    1.468   .     S
O28    Ce21    2.266   1_556 S
O29    Ce20    2.247   1_656 S
O29    Ce21    2.266   1_556 S
O30    Ce20    2.296   1_556 S
O31    C23     1.283   1_554 A
O32    Ce20    2.318   1_655 S
O35    Ce21    2.244   1_455 S
O37    Ce21    2.292   1_556 S
O37    C26     1.281   1_556 A
O38    Ce21    2.277   1_456 S
O39    Ce20    2.363   1_556 S
Ce40   O51     2.291   .     S
Ce40   O54     2.375   .     S
Ce40   O55     2.296   .     S
Ce40   O59     2.326   .     S
Ce40   O49     2.258   1_566 S
Ce40   O50     2.269   1_556 S
Ce40   O52     2.317   1_565 S
Ce41   O48     2.375   .     S
Ce41   O49     2.288   .     S
Ce41   O53     2.323   .     S
Ce41   O57     2.281   .     S
Ce41   O55     2.258   1_544 S
Ce41   O56     2.285   1_554 S
Ce41   O58     2.317   1_545 S
C42    O48     1.205   .     D
C42    O49     1.365   .     S
C42    C88     1.505   .     S
C43    O51     1.282   .     A
C43    C148    1.463   .     S
C43    O50     1.275   1_556 A
C44    O52     1.304   .     A
C44    C116    1.475   .     S
C44    O53     1.303   1_556 A
C45    O54     1.203   .     D
C45    O55     1.364   .     S
C45    C92     1.504   .     S
C46    O57     1.276   .     A
C46    C164    1.460   .     S
C46    O56     1.277   1_554 A
C47    O58     1.304   .     A
C47    C136    1.472   .     S
C47    O59     1.302   1_554 A
O49    Ce40    2.258   1_544 S
O50    Ce40    2.269   1_554 S
O50    C43     1.275   1_554 A
O52    Ce40    2.317   1_545 S
O53    C44     1.303   1_554 A
O55    Ce41    2.258   1_566 S
O56    Ce41    2.285   1_556 S
O56    C46     1.277   1_556 A
O58    Ce41    2.317   1_565 S
O59    C47     1.302   1_556 A
C60    C61     1.405   .     A
C60    N65     1.353   .     A
C60    N66     1.357   .     A
C61    N62     1.359   .     A
C61    N69     1.354   .     A
N62    C63     1.357   .     A
C63    C64     1.402   .     A
C63    H70     1.086   .     S
C64    N65     1.361   .     A
N66    C67     1.360   .     A
C67    C68     1.400   .     A
C67    H71     1.084   .     S
C68    N69     1.360   .     A
C72    N77     1.346   .     A
C72    N78     1.353   .     A
C72    C73     1.408   1_655 A
C73    N74     1.355   .     A
C73    N81     1.351   .     A
C73    C72     1.408   1_455 A
N74    C75     1.355   .     A
C75    C76     1.403   .     A
C75    H82     1.084   .     S
C76    N77     1.356   1_455 A
C76    C22     1.442   1_455 S
N77    C76     1.356   1_655 A
N78    C79     1.354   .     A
C79    C80     1.405   .     A
C79    H83     1.082   .     S
C80    N81     1.357   1_655 A
C80    C25     1.444   1_655 S
N81    C80     1.357   1_455 A
C84    N89     1.373   .     A
C84    N90     1.363   .     A
C84    C85     1.403   1_565 A
C85    N86     1.360   .     A
C85    N93     1.371   .     A
C85    C84     1.403   1_545 A
N86    C87     1.368   .     A
C87    C88     1.409   .     A
C87    H94     1.079   .     S
C88    N89     1.371   1_545 A
N89    C88     1.371   1_565 A
N90    C91     1.369   .     A
C91    C92     1.411   .     A
C91    H95     1.089   .     S
C92    N93     1.372   1_565 A
N93    C92     1.372   1_545 A
C96    N101    1.348   .     A
C96    N102    1.353   .     A
C96    C97     1.402   1_554 A
C97    N98     1.366   .     A
C97    N105    1.363   .     A
C97    C96     1.402   1_556 A
N98    C99     1.367   .     A
C99    C100    1.400   .     A
C99    H106    1.087   .     S
C100   N101    1.361   1_556 A
N101   C100    1.361   1_554 A
N102   C103    1.357   .     A
C103   C104    1.406   .     A
C103   H107    1.086   .     S
C104   N105    1.369   1_554 A
C104   C23     1.470   1_554 S
N105   C104    1.369   1_556 A
C108   C109    1.405   .     A
C108   N114    1.360   .     A
C108   N113    1.364   1_556 A
C109   N117    1.351   .     A
C109   N110    1.354   1_556 A
N110   C111    1.356   .     A
N110   C109    1.354   1_554 A
C111   C112    1.407   .     A
C111   H118    1.080   .     S
C112   N113    1.367   .     A
N113   C108    1.364   1_554 A
N114   C115    1.365   .     A
C115   C116    1.406   .     A
C115   H119    1.082   .     S
C116   N117    1.361   .     A
C120   N125    1.359   .     A
C120   N126    1.359   .     A
C120   C121    1.409   1_556 A
C121   N122    1.359   .     A
C121   N129    1.362   .     A
C121   C120    1.409   1_554 A
N122   C123    1.362   .     A
C123   H130    1.092   .     S
C123   C124    1.404   1_554 A
C124   N125    1.363   .     A
C124   C123    1.404   1_556 A
C124   C26     1.449   1_556 S
N126   C127    1.361   .     A
C127   C128    1.410   .     A
C127   H131    1.083   .     S
C128   N129    1.364   1_556 A
C128   C3      1.466   1_556 S
N129   C128    1.364   1_554 A
C132   N137    1.360   .     A
C132   N138    1.355   .     A
C132   C133    1.404   1_554 A
C133   N134    1.355   .     A
C133   N141    1.361   .     A
C133   C132    1.404   1_556 A
N134   C135    1.364   1_556 A
C135   C136    1.404   .     A
C135   H142    1.081   .     S
C135   N134    1.364   1_554 A
C136   N137    1.359   .     A
N138   C139    1.362   .     A
C139   H143    1.079   .     S
C139   C140    1.403   1_554 A
C140   N141    1.359   .     A
C140   C139    1.403   1_556 A
C144   C145    1.404   .     A
C144   N149    1.355   .     A
C144   N150    1.357   .     A
C145   N146    1.359   .     A
C145   N153    1.359   .     A
N146   C147    1.361   .     A
C147   C148    1.410   .     A
C147   H154    1.089   .     S
C148   N149    1.362   .     A
N150   C151    1.358   .     A
C151   C152    1.400   .     A
C151   H155    1.088   .     S
C152   N153    1.364   .     A
C156   C157    1.404   .     A
C156   N161    1.363   1_554 A
C156   N162    1.361   1_554 A
C157   N158    1.353   .     A
C157   N165    1.357   .     A
N158   C159    1.361   .     A
C159   C160    1.410   .     A
C159   H166    1.078   .     S
C160   N161    1.364   1_554 A
N161   C156    1.363   1_556 A
N161   C160    1.364   1_556 A
N162   C156    1.361   1_556 A
N162   C163    1.365   1_556 A
C163   C164    1.402   .     A
C163   N162    1.365   1_554 A
C163   H167    1.080   1_554 S
C164   N165    1.361   .     A
H167   C163    1.080   1_556 S
