data_kag+N123+E183
_audit_creation_date              2025-01-21
_audit_creation_method            'Materials Studio'
_symmetry_space_group_name_H-M    'P1'
_symmetry_Int_Tables_number       1
_symmetry_cell_setting            triclinic
loop_
_symmetry_equiv_pos_as_xyz
  x,y,z
_cell_length_a                    30.6038
_cell_length_b                    28.6523
_cell_length_c                    12.5499
_cell_angle_alpha                 92.1505
_cell_angle_beta                  95.6668
_cell_angle_gamma                 126.3616
loop_
_atom_site_label
_atom_site_type_symbol
_atom_site_fract_x
_atom_site_fract_y
_atom_site_fract_z
_atom_site_U_iso_or_equiv
_atom_site_adp_type
_atom_site_occupancy
Ce0    Ce    0.56424   0.53012   0.01703   0.00000  Uiso   1.00
Ce1    Ce    0.44664   0.48010   0.98675   0.00000  Uiso   1.00
C2     C     0.46948   0.50026   0.20268   0.00000  Uiso   1.00
C3     C     0.67045   0.57272   0.02415   0.00000  Uiso   1.00
C4     C     0.53382   0.62041   0.99206   0.00000  Uiso   1.00
C5     C     0.54057   0.52077   0.80269   0.00000  Uiso   1.00
C6     C     0.34090   0.43981   0.97625   0.00000  Uiso   1.00
C7     C     0.47696   0.38969   0.01183   0.00000  Uiso   1.00
O8     O     0.42394   0.48070   0.15470   0.00000  Uiso   1.00
O9     O     0.50824   0.51259   0.13700   0.00000  Uiso   1.00
O10    O     0.64963   0.56989   0.10937   0.00000  Uiso   1.00
O11    O     0.63773   0.55604   0.93581   0.00000  Uiso   1.00
O12    O     0.57363   0.61610   1.01018   0.00000  Uiso   1.00
O13    O     0.48237   0.57647   0.97885   0.00000  Uiso   1.00
O14    O     0.58741   0.54375   0.84750   0.00000  Uiso   1.00
O15    O     0.50069   0.48981   0.86813   0.00000  Uiso   1.00
O16    O     0.36194   0.44149   0.89193   0.00000  Uiso   1.00
O17    O     0.37329   0.45702   0.06534   0.00000  Uiso   1.00
O18    O     0.43690   0.39420   0.00163   0.00000  Uiso   1.00
O19    O     0.52852   0.43322   0.01694   0.00000  Uiso   1.00
Ce20   Ce    0.03323   0.47400  -0.01204   0.00000  Uiso   1.00
Ce21   Ce    0.97560   0.53496   0.00827   0.00000  Uiso   1.00
C22    C     0.99946   0.52439   0.80285   0.00000  Uiso   1.00
C23    C     0.08969   0.42944   0.98128   0.00000  Uiso   1.00
C24    C     0.90211   0.39206   0.00847   0.00000  Uiso   1.00
C25    C     0.00906   0.48424   0.19316   0.00000  Uiso   1.00
C26    C     0.91965   0.58013   0.01515   0.00000  Uiso   1.00
C27    C     0.10670   0.61684   0.98766   0.00000  Uiso   1.00
O28    O     1.00880   0.56827   0.84624   0.00000  Uiso   1.00
O29    O     0.97708   0.48145   0.87035   0.00000  Uiso   1.00
O30    O     0.05789   0.42355   0.89909   0.00000  Uiso   1.00
O31    O     0.08977   0.45456   0.06734   0.00000  Uiso   1.00
O32    O     0.94463   0.39253   0.00109   0.00000  Uiso   1.00
O33    O     0.90351   0.43838   0.01389   0.00000  Uiso   1.00
O34    O    -0.00036   0.44034   0.14954   0.00000  Uiso   1.00
O35    O     0.03161   0.52730   0.12595   0.00000  Uiso   1.00
O36    O     0.95128   0.58569   0.09730   0.00000  Uiso   1.00
O37    O     0.91930   0.55479   0.92905   0.00000  Uiso   1.00
O38    O     0.06427   0.61643   0.99572   0.00000  Uiso   1.00
O39    O     0.10522   0.57049   0.98159   0.00000  Uiso   1.00
Ce40   Ce    0.52398   0.96775   1.00185   0.00000  Uiso   1.00
Ce41   Ce    0.48587   0.04091   0.00180   0.00000  Uiso   1.00
C42    C     0.50524   0.04096   0.21454   0.00000  Uiso   1.00
C43    C     0.55332   0.89586   0.99031   0.00000  Uiso   1.00
C44    C     0.61659   0.10701   1.00714   0.00000  Uiso   1.00
C45    C     0.51559   0.98158   0.79346   0.00000  Uiso   1.00
C46    C     0.45925   0.11515   0.01276   0.00000  Uiso   1.00
C47    C     0.39306   0.90174  -0.00400   0.00000  Uiso   1.00
O48    O     0.49011   0.06904   0.17766   0.00000  Uiso   1.00
O49    O     0.51319   0.01116   0.13824   0.00000  Uiso   1.00
O50    O     0.55535   0.92027   0.07987   0.00000  Uiso   1.00
O51    O     0.53968   0.91100   0.90630   0.00000  Uiso   1.00
O52    O     0.60857   0.05727   1.00848   0.00000  Uiso   1.00
O53    O     0.57763   0.11276   0.00341   0.00000  Uiso   1.00
O54    O     0.53408   0.95611   0.82735   0.00000  Uiso   1.00
O55    O     0.48885   0.99032   0.86562   0.00000  Uiso   1.00
O56    O     0.45587   0.08959   0.92322   0.00000  Uiso   1.00
O57    O     0.47320   0.10033   0.09700   0.00000  Uiso   1.00
O58    O     0.40154   0.95206   0.00293   0.00000  Uiso   1.00
O59    O     0.43150   0.89525   0.99207   0.00000  Uiso   1.00
C60    C     0.48278   0.50911   0.31935   0.00000  Uiso   1.00
C61    C     0.53199   0.53131   0.49903   0.00000  Uiso   1.00
C62    C     0.47832   0.50262   0.50998   0.00000  Uiso   1.00
S63    S     0.57818   0.55120   0.60937   0.00000  Uiso   1.00
S64    S     0.46039   0.48777   0.63393   0.00000  Uiso   1.00
S65    S     0.54979   0.54370   0.37493   0.00000  Uiso   1.00
S66    S     0.43201   0.48121   0.39856   0.00000  Uiso   1.00
C67    C     0.52724   0.52022   0.68821   0.00000  Uiso   1.00
C68    C     0.00435   0.51706   0.68727   0.00000  Uiso   1.00
C69    C     0.99313   0.47573   0.50067   0.00000  Uiso   1.00
C70    C     0.01530   0.53278   0.49531   0.00000  Uiso   1.00
S71    S     0.97977   0.43380   0.38436   0.00000  Uiso   1.00
S72    S     0.02826   0.55854   0.37278   0.00000  Uiso   1.00
S73    S     0.98017   0.44998   0.62324   0.00000  Uiso   1.00
S74    S     0.02867   0.57471   0.61161   0.00000  Uiso   1.00
C75    C     0.00410   0.49147   0.30872   0.00000  Uiso   1.00
C76    C     0.51278   0.03645   0.32892   0.00000  Uiso   1.00
C77    C     0.50531   0.03219   0.51919   0.00000  Uiso   1.00
C78    C     0.52842   1.00536   0.49600   0.00000  Uiso   1.00
S79    S     0.49142   0.03390   0.64548   0.00000  Uiso   1.00
S80    S     0.54258   0.97559   0.59412   0.00000  Uiso   1.00
S81    S     0.48966   0.06034   0.41949   0.00000  Uiso   1.00
S82    S     0.53990   1.00093   0.36894   0.00000  Uiso   1.00
C83    C     0.51643  -0.00393   0.68354   0.00000  Uiso   1.00
C84    C     0.28508   0.42283  -0.02677   0.00000  Uiso   1.00
C85    C     0.20635   0.41381   0.02841   0.00000  Uiso   1.00
C86    C     0.19852   0.40853   0.91902   0.00000  Uiso   1.00
S87    S     0.16302   0.41752   0.09530   0.00000  Uiso   1.00
S88    S     0.14512   0.40553   0.85561   0.00000  Uiso   1.00
S89    S     0.26241   0.42278   0.09300   0.00000  Uiso   1.00
S90    S     0.24600   0.41172   0.85329   0.00000  Uiso   1.00
C91    C     0.12738   0.41385  -0.02315   0.00000  Uiso   1.00
C92    C     0.84838   0.33606   1.01173   0.00000  Uiso   1.00
C93    C     0.75047   0.26320   0.01566   0.00000  Uiso   1.00
C94    C     0.77146   0.23290   1.00935   0.00000  Uiso   1.00
S95    S     0.68266   0.22646   0.01798   0.00000  Uiso   1.00
S96    S     0.72773   0.15902   1.00457   0.00000  Uiso   1.00
S97    S     0.79286   0.33640   0.01953   0.00000  Uiso   1.00
S98    S     0.83985   0.27091   1.00526   0.00000  Uiso   1.00
C99    C     0.67270   0.16074   1.01011   0.00000  Uiso   1.00
C100   C     0.88251   0.59645   1.01974   0.00000  Uiso   1.00
C101   C     0.80428   0.59789   0.96914   0.00000  Uiso   1.00
C102   C     0.81264   0.60364   0.07856   0.00000  Uiso   1.00
S103   S     0.74817   0.58912   0.90541   0.00000  Uiso   1.00
S104   S     0.76584   0.60131   0.14517   0.00000  Uiso   1.00
S105   S     0.84671   0.59287   0.90157   0.00000  Uiso   1.00
S106   S     0.86580   0.60604   0.14131   0.00000  Uiso   1.00
C107   C     0.72630   0.58997   1.02576   0.00000  Uiso   1.00
C108   C     0.33679   0.84807  -0.00818   0.00000  Uiso   1.00
C109   C     0.23804   0.77616  -0.00704   0.00000  Uiso   1.00
C110   C     0.25827   0.74549   0.97948   0.00000  Uiso   1.00
S111   S     0.16991   0.73839  -0.00035   0.00000  Uiso   1.00
S112   S     0.21523   0.67207   0.96982   0.00000  Uiso   1.00
S113   S     0.28245   0.85023   0.00404   0.00000  Uiso   1.00
S114   S     0.32586   0.78197   0.97488   0.00000  Uiso   1.00
C115   C     0.16046   0.67284  -0.01536   0.00000  Uiso   1.00
C116   C     0.56125   0.85015   0.98437   0.00000  Uiso   1.00
C117   C     0.54585   0.75809   0.93064   0.00000  Uiso   1.00
C118   C     0.57124   0.77493   1.03450   0.00000  Uiso   1.00
S119   S     0.52325   0.69191   0.87131   0.00000  Uiso   1.00
S120   S     0.58048   0.72946   1.09771   0.00000  Uiso   1.00
S121   S     0.53415   0.80199   0.86892   0.00000  Uiso   1.00
S122   S     0.58794   0.83805   1.09762   0.00000  Uiso   1.00
C123   C     0.54719   0.67830   0.98610   0.00000  Uiso   1.00
C124   C     0.46387   0.33197   0.01862   0.00000  Uiso   1.00
C125   C     0.46820   0.25383   0.07236   0.00000  Uiso   1.00
C126   C     0.43970   0.23520  -0.02905   0.00000  Uiso   1.00
S127   S     0.48229   0.21136   0.13231   0.00000  Uiso   1.00
S128   S     0.42185   0.17140  -0.09158   0.00000  Uiso   1.00
S129   S     0.49208   0.32070   0.13016   0.00000  Uiso   1.00
S130   S     0.42763   0.27914   0.90974   0.00000  Uiso   1.00
C131   C     0.45216   0.16147   0.01888   0.00000  Uiso   1.00
loop_
_geom_bond_atom_site_label_1
_geom_bond_atom_site_label_2
_geom_bond_distance
_geom_bond_site_symmetry_2
_ccdc_geom_bond_type
Ce0    O9      2.236   .     S
Ce0    O10     2.290   .     S
Ce0    O19     2.303   .     S
Ce0    O11     2.275   1_554 S
Ce0    O12     2.311   1_554 S
Ce0    O14     2.283   1_554 S
Ce0    O15     2.251   1_554 S
Ce1    O13     2.300   .     S
Ce1    O15     2.236   .     S
Ce1    O16     2.291   .     S
Ce1    O8      2.286   1_556 S
Ce1    O9      2.250   1_556 S
Ce1    O17     2.275   1_556 S
Ce1    O18     2.314   1_556 S
C2     O8      1.226   .     D
C2     O9      1.389   .     S
C2     C60     1.451   .     S
C3     O10     1.279   .     A
C3     O11     1.278   1_554 A
C3     C107    1.469   1_554 S
C4     O12     1.295   .     A
C4     O13     1.294   .     A
C4     C123    1.461   .     S
C5     O14     1.224   .     D
C5     O15     1.386   .     S
C5     C67     1.451   .     S
C6     O16     1.280   .     A
C6     O17     1.279   1_556 A
C6     C84     1.469   1_556 S
C7     O18     1.301   .     A
C7     O19     1.300   .     A
C7     C124    1.461   .     S
O8     Ce1     2.286   1_554 S
O9     Ce1     2.250   1_554 S
O11    Ce0     2.275   1_556 S
O11    C3      1.278   1_556 A
O12    Ce0     2.311   1_556 S
O14    Ce0     2.283   1_556 S
O15    Ce0     2.251   1_556 S
O17    Ce1     2.275   1_554 S
O17    C6      1.279   1_554 A
O18    Ce1     2.314   1_554 S
Ce20   O31     2.267   .     S
Ce20   O34     2.341   .     S
Ce20   O35     2.290   .     S
Ce20   O29     2.266   1_454 S
Ce20   O30     2.290   1_554 S
Ce20   O32     2.333   1_455 S
Ce20   O39     2.309   1_554 S
Ce21   O33     2.310   .     S
Ce21   O36     2.289   .     S
Ce21   O28     2.341   1_554 S
Ce21   O29     2.291   1_554 S
Ce21   O35     2.267   1_655 S
Ce21   O37     2.268   1_554 S
Ce21   O38     2.332   1_654 S
C22    O28     1.205   .     D
C22    O29     1.376   .     S
C22    C68     1.493   1_655 S
C23    O30     1.278   .     A
C23    O31     1.274   1_556 A
C23    C91     1.468   1_556 S
C24    O32     1.306   .     A
C24    O33     1.301   .     A
C24    C92     1.473   1_554 S
C25    O34     1.205   .     D
C25    O35     1.376   .     S
C25    C75     1.493   .     S
C26    O36     1.278   .     A
C26    O37     1.274   1_554 A
C26    C100    1.468   1_554 S
C27    O38     1.306   .     A
C27    O39     1.301   .     A
C27    C115    1.473   1_556 S
O28    Ce21    2.341   1_556 S
O29    Ce20    2.266   1_656 S
O29    Ce21    2.291   1_556 S
O30    Ce20    2.290   1_556 S
O31    C23     1.274   1_554 A
O32    Ce20    2.333   1_655 S
O35    Ce21    2.267   1_455 S
O37    Ce21    2.268   1_556 S
O37    C26     1.274   1_556 A
O38    Ce21    2.332   1_456 S
O39    Ce20    2.309   1_556 S
Ce40   O51     2.282   .     S
Ce40   O54     2.281   .     S
Ce40   O55     2.245   .     S
Ce40   O59     2.298   .     S
Ce40   O49     2.242   1_566 S
Ce40   O50     2.279   1_556 S
Ce40   O52     2.314   1_565 S
Ce41   O48     2.285   .     S
Ce41   O49     2.243   .     S
Ce41   O53     2.292   .     S
Ce41   O57     2.280   .     S
Ce41   O55     2.243   1_544 S
Ce41   O56     2.281   1_554 S
Ce41   O58     2.315   1_545 S
C42    O48     1.226   .     D
C42    O49     1.391   .     S
C42    C76     1.454   .     S
C43    O51     1.279   .     A
C43    C116    1.468   .     S
C43    O50     1.277   1_556 A
C44    O52     1.296   .     A
C44    C99     1.473   .     S
C44    O53     1.293   1_556 A
C45    O54     1.225   .     D
C45    O55     1.387   .     S
C45    C83     1.454   1_565 S
C46    O57     1.280   .     A
C46    C131    1.467   .     S
C46    O56     1.279   1_554 A
C47    O58     1.302   .     A
C47    C108    1.473   .     S
C47    O59     1.300   1_554 A
O49    Ce40    2.242   1_544 S
O50    Ce40    2.279   1_554 S
O50    C43     1.277   1_554 A
O52    Ce40    2.314   1_545 S
O53    C44     1.293   1_554 A
O55    Ce41    2.243   1_566 S
O56    Ce41    2.281   1_556 S
O56    C46     1.279   1_556 A
O58    Ce41    2.315   1_565 S
O59    C47     1.300   1_556 A
C60    S65     1.712   .     A
C60    S66     1.713   .     A
C61    C62     1.358   .     A
C61    S63     1.685   .     A
C61    S65     1.682   .     A
C62    S64     1.686   .     A
C62    S66     1.689   .     A
S63    C67     1.711   .     A
S64    C67     1.713   .     A
C68    S74     1.727   .     A
C68    S73     1.723   1_455 A
C68    C22     1.493   1_455 S
C69    S71     1.706   .     A
C69    S73     1.711   .     A
C69    C70     1.356   1_655 A
C70    S72     1.710   .     A
C70    S74     1.705   .     A
C70    C69     1.356   1_455 A
S71    C75     1.727   1_655 A
S72    C75     1.723   .     A
S73    C68     1.723   1_655 A
C75    S71     1.727   1_455 A
C76    S81     1.713   .     A
C76    S82     1.713   1_545 A
C77    S79     1.687   .     A
C77    S81     1.691   .     A
C77    C78     1.358   1_545 A
C78    S80     1.686   .     A
C78    S82     1.682   .     A
C78    C77     1.358   1_565 A
S79    C83     1.715   .     A
S80    C83     1.711   1_565 A
S82    C76     1.713   1_565 A
C83    S80     1.711   1_545 A
C83    C45     1.454   1_545 S
C84    S89     1.716   .     A
C84    S90     1.719   1_554 A
C84    C6      1.469   1_554 S
C85    S87     1.690   .     A
C85    S89     1.689   .     A
C85    C86     1.357   1_554 A
C86    S88     1.698   .     A
C86    S90     1.699   .     A
C86    C85     1.357   1_556 A
S87    C91     1.715   .     A
S88    C91     1.719   1_556 A
S90    C84     1.719   1_556 A
C91    S88     1.719   1_554 A
C91    C23     1.468   1_554 S
C92    S98     1.722   .     A
C92    S97     1.717   1_556 A
C92    C24     1.473   1_556 S
C93    S95     1.685   .     A
C93    S97     1.685   .     A
C93    C94     1.356   1_554 A
C94    S96     1.700   .     A
C94    S98     1.701   .     A
C94    C93     1.356   1_556 A
S95    C99     1.717   1_554 A
S96    C99     1.722   .     A
S97    C92     1.717   1_554 A
C99    S95     1.717   1_556 A
C100   S105    1.716   .     A
C100   S106    1.719   1_556 A
C100   C26     1.468   1_556 S
C101   S103    1.689   .     A
C101   S105    1.690   .     A
C101   C102    1.357   1_556 A
C102   S104    1.698   .     A
C102   S106    1.697   .     A
C102   C101    1.357   1_554 A
S103   C107    1.716   .     A
S104   C107    1.719   1_554 A
S106   C100    1.719   1_554 A
C107   S104    1.719   1_556 A
C107   C3      1.469   1_556 S
C108   S113    1.722   .     A
C108   S114    1.717   1_554 A
C109   S111    1.701   .     A
C109   S113    1.700   .     A
C109   C110    1.356   1_554 A
C110   S112    1.685   .     A
C110   S114    1.685   .     A
C110   C109    1.356   1_556 A
S111   C115    1.722   .     A
S112   C115    1.718   1_556 A
S114   C108    1.717   1_556 A
C115   S112    1.718   1_554 A
C115   C27     1.473   1_554 S
C116   S121    1.717   .     A
C116   S122    1.718   .     A
C117   C118    1.358   .     A
C117   S119    1.693   .     A
C117   S121    1.692   .     A
C118   S120    1.696   .     A
C118   S122    1.696   .     A
S119   C123    1.714   .     A
S120   C123    1.715   .     A
C124   S129    1.713   .     A
C124   S130    1.716   1_554 A
C125   C126    1.358   .     A
C125   S127    1.691   .     A
C125   S129    1.692   .     A
C126   S128    1.697   .     A
C126   S130    1.697   1_554 A
S127   C131    1.716   .     A
S128   C131    1.718   .     A
S130   C124    1.716   1_556 A
S130   C126    1.697   1_556 A
