data_kag+N248+E225
_audit_creation_date              2025-01-21
_audit_creation_method            'Materials Studio'
_symmetry_space_group_name_H-M    'P1'
_symmetry_Int_Tables_number       1
_symmetry_cell_setting            triclinic
loop_
_symmetry_equiv_pos_as_xyz
  x,y,z
_cell_length_a                    38.2503
_cell_length_b                    42.9161
_cell_length_c                    19.8083
_cell_angle_alpha                 88.7182
_cell_angle_beta                  96.8329
_cell_angle_gamma                 125.5458
loop_
_atom_site_label
_atom_site_type_symbol
_atom_site_fract_x
_atom_site_fract_y
_atom_site_fract_z
_atom_site_U_iso_or_equiv
_atom_site_adp_type
_atom_site_occupancy
O0     O     0.50772   0.53974   0.88169   0.00000  Uiso   1.00
Yb1    Yb    0.48684   0.46460   0.97476   0.00000  Uiso   1.00
C2     C     0.47197   0.39928  -0.04188   0.00000  Uiso   1.00
Yb3    Yb    0.50708   0.54086  -0.00929   0.00000  Uiso   1.00
O4     O     0.49142   0.47897   0.86898   0.00000  Uiso   1.00
C5     C     0.43123   0.48693   0.02555   0.00000  Uiso   1.00
C6     C     0.50032   0.51108   0.84466   0.00000  Uiso   1.00
O7     O     0.48473   0.57581   0.98970   0.00000  Uiso   1.00
C8     C     0.52279   0.60582   1.00884   0.00000  Uiso   1.00
O9     O     0.54613   0.46890   0.98522   0.00000  Uiso   1.00
O10    O     0.54541   0.51940  -0.00568   0.00000  Uiso   1.00
O11    O     0.49055   0.46612   0.08513   0.00000  Uiso   1.00
O12    O     0.55289   0.60080   0.01658   0.00000  Uiso   1.00
O13    O     0.50994   0.52770   0.09913   0.00000  Uiso   1.00
C14    C     0.56901   0.50390   0.99600   0.00000  Uiso   1.00
C15    C     0.50323   0.49611   0.12353   0.00000  Uiso   1.00
O16    O     0.51042   0.43024  -0.02952   0.00000  Uiso   1.00
O17    O     0.44152   0.40367   0.95599   0.00000  Uiso   1.00
O18    O     0.45787   0.51668   0.05971   0.00000  Uiso   1.00
O19    O     0.44661   0.48416   0.96810   0.00000  Uiso   1.00
O20    O     0.99768   0.51452   0.89898   0.00000  Uiso   1.00
Yb21   Yb    0.04328   0.49115   0.03629   0.00000  Uiso   1.00
C22    C     0.08881   0.46695   0.06458   0.00000  Uiso   1.00
Yb23   Yb    0.98735   0.51692   1.00404   0.00000  Uiso   1.00
O24    O     0.04105   0.49306   0.92217   0.00000  Uiso   1.00
C25    C     0.93571   0.44405  -0.00279   0.00000  Uiso   1.00
C26    C     0.01906   0.50188   0.87920   0.00000  Uiso   1.00
O27    O     0.92224   0.49897   0.97470   0.00000  Uiso   1.00
C28    C     0.93358   0.53351   0.97974   0.00000  Uiso   1.00
O29    O     0.08537   0.53285   0.96761   0.00000  Uiso   1.00
O30    O     0.05621   0.54750   0.03730   0.00000  Uiso   1.00
O31    O     0.02179   0.48399   0.13474   0.00000  Uiso   1.00
O32    O     0.97390   0.55885  -0.00115   0.00000  Uiso   1.00
O33    O     0.98324   0.50962   0.11263   0.00000  Uiso   1.00
C34    C     0.08397   0.55886   0.98834   0.00000  Uiso   1.00
C35    C    -0.00110   0.49502   0.15340   0.00000  Uiso   1.00
O36    O     0.10343   0.50204   0.07647   0.00000  Uiso   1.00
O37    O     0.04959   0.44516   1.03560   0.00000  Uiso   1.00
O38    O     0.92186   0.46373  -0.00587   0.00000  Uiso   1.00
O39    O     0.97936   0.46554   0.99136   0.00000  Uiso   1.00
O40    O     0.49337   0.02033   0.11957   0.00000  Uiso   1.00
Yb41   Yb    0.52173   0.98437   0.00673   0.00000  Uiso   1.00
C42    C     0.54835   0.94233   1.00218   0.00000  Uiso   1.00
Yb43   Yb    0.48939   0.02921   1.01171   0.00000  Uiso   1.00
O44    O     0.51861   0.98314   0.11507   0.00000  Uiso   1.00
C45    C     0.57089   0.08308   0.02975   0.00000  Uiso   1.00
C46    C     0.50617   0.00029   0.14829   0.00000  Uiso   1.00
O47    O     0.50272   0.08490   0.02223   0.00000  Uiso   1.00
C48    C     0.46225   0.07092   0.01424   0.00000  Uiso   1.00
O49    O     0.46802   0.92473  -0.00982   0.00000  Uiso   1.00
O50    O     0.45656   0.96914   0.99769   0.00000  Uiso   1.00
O51    O     0.51801   0.99347   0.89903   0.00000  Uiso   1.00
O52    O     0.43666   0.03434   1.00668   0.00000  Uiso   1.00
O53    O     0.49244   0.03036   0.90341   0.00000  Uiso   1.00
C54    C     0.44003   0.93052  -0.01104   0.00000  Uiso   1.00
C55    C     0.50526   0.01354   0.87030   0.00000  Uiso   1.00
O56    O     0.50798   0.92863   0.99513   0.00000  Uiso   1.00
O57    O     0.57424   0.97885   0.01114   0.00000  Uiso   1.00
O58    O     0.54286   0.08888   1.02723   0.00000  Uiso   1.00
O59    O     0.55464   0.04449   0.02138   0.00000  Uiso   1.00
C60    C     0.50739   0.49380   0.19843   0.00000  Uiso   1.00
C61    C     0.52238   0.52596   0.24146   0.00000  Uiso   1.00
C62    C     0.52554   0.52375   0.31214   0.00000  Uiso   1.00
C63    C     0.51283   0.48896   0.34137   0.00000  Uiso   1.00
C64    C     0.49919   0.45729   0.29854   0.00000  Uiso   1.00
C65    C     0.49623   0.45950   0.22777   0.00000  Uiso   1.00
C66    C     0.50692   0.50620   0.45133   0.00000  Uiso   1.00
H67    H     0.48071   0.45703   0.74728   0.00000  Uiso   1.00
H68    H     0.48105   0.46316   0.62499   0.00000  Uiso   1.00
H69    H     0.52415   0.58047   0.65032   0.00000  Uiso   1.00
H70    H     0.52274   0.57429   0.77330   0.00000  Uiso   1.00
H71    H     0.52644   0.49230   0.54310   0.00000  Uiso   1.00
O72    O     0.50407   0.52794   0.55791   0.00000  Uiso   1.00
O73    O     0.51596   0.48534   0.41223   0.00000  Uiso   1.00
C74    C     0.50201   0.51526   0.77036   0.00000  Uiso   1.00
C75    C     0.49081   0.48435   0.72710   0.00000  Uiso   1.00
C76    C     0.49163   0.48804   0.65689   0.00000  Uiso   1.00
C77    C     0.50460   0.52309   0.62846   0.00000  Uiso   1.00
C78    C     0.51515   0.55364   0.67147   0.00000  Uiso   1.00
C79    C     0.51416   0.54995   0.74165   0.00000  Uiso   1.00
C80    C     0.51318   0.50701   0.51917   0.00000  Uiso   1.00
H81    H     0.53846   0.54938   0.34371   0.00000  Uiso   1.00
H82    H     0.49033   0.43061   0.32022   0.00000  Uiso   1.00
H83    H     0.53196   0.55301   0.22057   0.00000  Uiso   1.00
H84    H     0.49348   0.52083   0.42761   0.00000  Uiso   1.00
H85    H     0.48503   0.43431   0.19613   0.00000  Uiso   1.00
C86    C     1.02127   0.49978   0.80541   0.00000  Uiso   1.00
C87    C     0.99940   0.50954   0.75744   0.00000  Uiso   1.00
C88    C     1.00206   0.50795   0.68792   0.00000  Uiso   1.00
C89    C     0.02623   0.49601   0.66486   0.00000  Uiso   1.00
C90    C     0.04858   0.48700   0.71280   0.00000  Uiso   1.00
C91    C     0.04594   0.48854   0.78223   0.00000  Uiso   1.00
C92    C     0.99725   0.48669   0.54691   0.00000  Uiso   1.00
H93    H     0.02535   0.46591   0.25481   0.00000  Uiso   1.00
H94    H     0.01251   0.45999   0.37347   0.00000  Uiso   1.00
H95    H     0.94148   0.50929   0.33524   0.00000  Uiso   1.00
H96    H     0.95354   0.51487   0.21543   0.00000  Uiso   1.00
H97    H     0.03534   0.50292   0.46818   0.00000  Uiso   1.00
O98    O     0.96897   0.48267   0.43176   0.00000  Uiso   1.00
O99    O     0.03193   0.49570   0.59610   0.00000  Uiso   1.00
C100   C    -0.00934   0.49106   0.22547   0.00000  Uiso   1.00
C101   C     0.00710   0.47567   0.27145   0.00000  Uiso   1.00
C102   C     0.00023   0.47269   0.33973   0.00000  Uiso   1.00
C103   C     0.97725   0.48559   0.36379   0.00000  Uiso   1.00
C104   C     0.95989   0.49992   0.31772   0.00000  Uiso   1.00
C105   C     0.96676   0.50298   0.24938   0.00000  Uiso   1.00
C106   C     0.00325   0.49126   0.48150   0.00000  Uiso   1.00
H107   H     0.98606   0.51691   0.65267   0.00000  Uiso   1.00
H108   H     0.06816   0.47871   0.69608   0.00000  Uiso   1.00
H109   H     0.98060   0.51883   0.77357   0.00000  Uiso   1.00
H110   H     0.96528   0.47511   0.56061   0.00000  Uiso   1.00
H111   H     0.06355   0.48118   0.81774   0.00000  Uiso   1.00
C112   C     0.50671  -0.00323   0.22296   0.00000  Uiso   1.00
C113   C     0.49204   0.01324   0.26129   0.00000  Uiso   1.00
C114   C     0.49243   0.00973   0.33165   0.00000  Uiso   1.00
C115   C     0.50807   0.99003   0.36538   0.00000  Uiso   1.00
C116   C     0.52190   0.97306   0.32700   0.00000  Uiso   1.00
C117   C     0.52156   0.97654   0.25668   0.00000  Uiso   1.00
C118   C     0.51278   0.01255   0.47791   0.00000  Uiso   1.00
H119   H     0.53300   0.98631   0.78239   0.00000  Uiso   1.00
H120   H     0.53604   0.99528   0.66105   0.00000  Uiso   1.00
H121   H     0.48127   0.05889   0.66716   0.00000  Uiso   1.00
H122   H     0.47924   0.05103   0.78973   0.00000  Uiso   1.00
H123   H     0.49141   0.97665   0.55890   0.00000  Uiso   1.00
O124   O     0.50964   0.03382   0.58468   0.00000  Uiso   1.00
O125   O     0.50703   0.98379   0.43531   0.00000  Uiso   1.00
C126   C     0.50561   1.01772   0.79588   0.00000  Uiso   1.00
C127   C     0.52118   1.00192   0.75797   0.00000  Uiso   1.00
C128   C     0.52240   1.00663   0.68807   0.00000  Uiso   1.00
C129   C     0.50727   0.02670   0.65422   0.00000  Uiso   1.00
C130   C     0.49226   0.04279   0.69214   0.00000  Uiso   1.00
C131   C     0.49119   0.03825   0.76211   0.00000  Uiso   1.00
C132   C     0.50405   1.00523   0.54182   0.00000  Uiso   1.00
H133   H     0.47956   0.02166   0.35913   0.00000  Uiso   1.00
H134   H     0.53303   0.95704   0.35190   0.00000  Uiso   1.00
H135   H     0.47974   0.02849   0.23689   0.00000  Uiso   1.00
H136   H     0.52538   0.04107   0.46059   0.00000  Uiso   1.00
H137   H     0.53276   0.96321   0.22878   0.00000  Uiso   1.00
C138   C     0.38655   0.45909   0.04091   0.00000  Uiso   1.00
C139   C     0.37107   0.46787   0.09277   0.00000  Uiso   1.00
C140   C     0.32706   0.44458   0.10032   0.00000  Uiso   1.00
C141   C     0.29759   0.41156   1.05639   0.00000  Uiso   1.00
C142   C     0.31378   0.40189   1.00728   0.00000  Uiso   1.00
C143   C     0.35779   0.42538   0.99939   0.00000  Uiso   1.00
C144   C     0.23606   0.39724   0.10694   0.00000  Uiso   1.00
H145   H     0.07142   0.39781   1.02739   0.00000  Uiso   1.00
H146   H     0.11598   0.37449   1.06182   0.00000  Uiso   1.00
H147   H     0.20898   0.47957   0.18270   0.00000  Uiso   1.00
H148   H     0.16528   0.50349   0.14774   0.00000  Uiso   1.00
H149   H     0.19224   0.40077   1.03961   0.00000  Uiso   1.00
O150   O     0.19210   0.41337   0.14542   0.00000  Uiso   1.00
O151   O     0.25217   0.39017   1.05383   0.00000  Uiso   1.00
C152   C     0.11527   0.45264   0.08431   0.00000  Uiso   1.00
C153   C     0.10158   0.41604   1.06082   0.00000  Uiso   1.00
C154   C     0.12695   0.40276   1.08019   0.00000  Uiso   1.00
C155   C     0.16616   0.42585   0.12375   0.00000  Uiso   1.00
C156   C     0.17911   0.46180   0.14849   0.00000  Uiso   1.00
C157   C     0.15424   0.47536   0.12832   0.00000  Uiso   1.00
C158   C     0.20475   0.40224   1.09266   0.00000  Uiso   1.00
H159   H     0.31627   0.45372   0.13842   0.00000  Uiso   1.00
H160   H     0.29174   0.37680   0.97299   0.00000  Uiso   1.00
H161   H     0.39261   0.49383   0.12529   0.00000  Uiso   1.00
H162   H     0.25024   0.40051   0.15950   0.00000  Uiso   1.00
H163   H     0.36898   0.41796   0.95911   0.00000  Uiso   1.00
C164   C     0.90820   0.40195  -0.00202   0.00000  Uiso   1.00
C165   C     0.86598   0.38209   0.01528   0.00000  Uiso   1.00
C166   C     0.83968   0.34198   0.01361   0.00000  Uiso   1.00
C167   C     0.85514   0.32124   0.99381   0.00000  Uiso   1.00
C168   C     0.89717   0.34111   0.97636   0.00000  Uiso   1.00
C169   C     0.92381   0.38119   0.97944   0.00000  Uiso   1.00
C170   C     0.80587   0.26175   0.03902   0.00000  Uiso   1.00
H171   H     0.60938   0.15803   1.00370   0.00000  Uiso   1.00
H172   H     0.68686   0.21073   1.02578   0.00000  Uiso   1.00
H173   H     0.71429   0.13209   0.10624   0.00000  Uiso   1.00
H174   H     0.63681   0.07870   0.08198   0.00000  Uiso   1.00
H175   H     0.75769   0.21291   0.97713   0.00000  Uiso   1.00
O176   O     0.74967   0.20525   0.08425   0.00000  Uiso   1.00
O177   O     0.82784   0.28121   0.98378   0.00000  Uiso   1.00
C178   C     0.61744   0.11441   1.04082   0.00000  Uiso   1.00
C179   C     0.63204   0.15191   1.02518   0.00000  Uiso   1.00
C180   C     0.67610   0.18189   1.03739   0.00000  Uiso   1.00
C181   C     0.70607   0.17490   0.06643   0.00000  Uiso   1.00
C182   C     0.69149   0.13761   0.08280   0.00000  Uiso   1.00
C183   C     0.64750   0.10735   0.06892   0.00000  Uiso   1.00
C184   C     0.77031   0.22588   1.02880   0.00000  Uiso   1.00
H185   H     0.80683   0.32704   0.02545   0.00000  Uiso   1.00
H186   H     0.90910   0.32541   0.95987   0.00000  Uiso   1.00
H187   H     0.85320   0.39754   0.02927   0.00000  Uiso   1.00
H188   H     0.81762   0.27539   0.09021   0.00000  Uiso   1.00
H189   H     0.95615   0.39590   0.96530   0.00000  Uiso   1.00
C190   C     0.90219   0.54299   0.96420   0.00000  Uiso   1.00
C191   C     0.91304   0.57926   0.98334   0.00000  Uiso   1.00
C192   C     0.88270   0.58767   0.96888   0.00000  Uiso   1.00
C193   C     0.84120   0.55991  -0.06528   0.00000  Uiso   1.00
C194   C     0.83100   0.52430  -0.08611   0.00000  Uiso   1.00
C195   C     0.86092   0.51563  -0.07075   0.00000  Uiso   1.00
C196   C     0.80170   0.58220  -0.02988   0.00000  Uiso   1.00
H197   H     0.61784   0.47734  -0.00852   0.00000  Uiso   1.00
H198   H     0.69649   0.51437  -0.00094   0.00000  Uiso   1.00
H199   H     0.70742   0.61890   1.02995   0.00000  Uiso   1.00
H200   H     0.62776   0.58163   1.02237   0.00000  Uiso   1.00
H201   H     0.74504   0.56941  -0.08744   0.00000  Uiso   1.00
O202   O     0.75285   0.59114   0.01508   0.00000  Uiso   1.00
O203   O     0.81019   0.56731  -0.08289   0.00000  Uiso   1.00
C204   C     0.61675   0.52669   0.00568   0.00000  Uiso   1.00
C205   C     0.63688   0.50819   0.00007   0.00000  Uiso   1.00
C206   C     0.68178   0.52933   0.00379   0.00000  Uiso   1.00
C207   C     0.70762   0.56955   0.01288   0.00000  Uiso   1.00
C208   C     0.68782   0.58799   1.02172   0.00000  Uiso   1.00
C209   C     0.64254   0.56675   1.01745   0.00000  Uiso   1.00
C210   C     0.76585   0.58104  -0.03883   0.00000  Uiso   1.00
H211   H     0.89171   0.61586   0.98332   0.00000  Uiso   1.00
H212   H     0.79946   0.50303  -0.11373   0.00000  Uiso   1.00
H213   H     0.94483   0.60099   1.00969   0.00000  Uiso   1.00
H214   H     0.82133   0.59145   1.01977   0.00000  Uiso   1.00
H215   H     0.85191   0.48764  -0.08685   0.00000  Uiso   1.00
C216   C     0.39337   0.89912  -0.01984   0.00000  Uiso   1.00
C217   C     0.37931   0.86089  -0.02754   0.00000  Uiso   1.00
C218   C     0.33524   0.83099  -0.03341   0.00000  Uiso   1.00
C219   C     0.30414   0.83876   0.96684   0.00000  Uiso   1.00
C220   C     0.31836   0.87692   0.97525   0.00000  Uiso   1.00
C221   C     0.36256   0.90692   0.98137   0.00000  Uiso   1.00
C222   C     0.24403   0.77585  -0.07451   0.00000  Uiso   1.00
H223   H     0.11958   0.58075   0.86995   0.00000  Uiso   1.00
H224   H     0.16603   0.64630   0.83295   0.00000  Uiso   1.00
H225   H     0.15327   0.68921   0.01711   0.00000  Uiso   1.00
H226   H     0.10631   0.62437   0.05182   0.00000  Uiso   1.00
H227   H     0.18865   0.74316   0.97349   0.00000  Uiso   1.00
O228   O     0.19323   0.70975  -0.10237   0.00000  Uiso   1.00
O229   O     0.25955   0.80949   0.96430   0.00000  Uiso   1.00
C230   C     0.10925   0.59775   0.96347   0.00000  Uiso   1.00
C231   C     0.12619   0.60435   0.90152   0.00000  Uiso   1.00
C232   C     0.15254   0.64165   0.88031   0.00000  Uiso   1.00
C233   C     0.16317   0.67315   0.92060   0.00000  Uiso   1.00
C234   C     0.14567   0.66634  -0.01723   0.00000  Uiso   1.00
C235   C     0.11854   0.62888   0.00329   0.00000  Uiso   1.00
C236   C     0.20690   0.74301   0.93590   0.00000  Uiso   1.00
H237   H     0.32569   0.80184  -0.03674   0.00000  Uiso   1.00
H238   H     0.29501   0.88336   0.97702   0.00000  Uiso   1.00
H239   H     0.40242   0.85403  -0.02803   0.00000  Uiso   1.00
H240   H     0.26225   0.77585  -0.11271   0.00000  Uiso   1.00
H241   H     0.37263   0.93616   0.98770   0.00000  Uiso   1.00
C242   C     0.56300   0.91724   1.00121   0.00000  Uiso   1.00
C243   C     0.53218   0.87731   0.99364   0.00000  Uiso   1.00
C244   C     0.54523   0.85296  -0.00362   0.00000  Uiso   1.00
C245   C     0.58954   0.86802   0.00751   0.00000  Uiso   1.00
C246   C     0.62038   0.90791   0.01178   0.00000  Uiso   1.00
C247   C     0.60729   0.93244   1.00928   0.00000  Uiso   1.00
C248   C     0.57896   0.81140   0.04857   0.00000  Uiso   1.00
H249   H     0.60058   0.67660   0.02939   0.00000  Uiso   1.00
H250   H     0.61235   0.73801   0.05582   0.00000  Uiso   1.00
H251   H     0.47465   0.68012   0.04777   0.00000  Uiso   1.00
H252   H     0.46250   0.61887   0.02075   0.00000  Uiso   1.00
H253   H     0.59514   0.77960  -0.00087   0.00000  Uiso   1.00
O254   O     0.54903   0.74719   0.07149   0.00000  Uiso   1.00
O255   O     0.60348   0.84399   0.01131   0.00000  Uiso   1.00
C256   C     0.53064   0.64315   0.02248   0.00000  Uiso   1.00
C257   C     0.57287   0.67716   0.03249   0.00000  Uiso   1.00
C258   C     0.57958   0.71219   0.04703   0.00000  Uiso   1.00
C259   C     0.54404   0.71350   0.05204   0.00000  Uiso   1.00
C260   C     0.50216   0.67951   0.04300   0.00000  Uiso   1.00
C261   C     0.49537   0.64471   0.02754   0.00000  Uiso   1.00
C262   C     0.57727   0.78001   0.03748   0.00000  Uiso   1.00
H263   H     0.52069   0.82229  -0.01007   0.00000  Uiso   1.00
H264   H     0.65458   0.91994   0.01856   0.00000  Uiso   1.00
H265   H     0.49783   0.86478   0.98620   0.00000  Uiso   1.00
H266   H     0.55948   0.81069   0.08527   0.00000  Uiso   1.00
H267   H     0.63172   0.96317   1.01426   0.00000  Uiso   1.00
C268   C     0.46448   0.36197  -0.05357   0.00000  Uiso   1.00
C269   C     0.42299   0.32741  -0.05539   0.00000  Uiso   1.00
C270   C     0.41685   0.29231  -0.06656   0.00000  Uiso   1.00
C271   C     0.45223   0.29153  -0.07629   0.00000  Uiso   1.00
C272   C     0.49321   0.32608   0.92393   0.00000  Uiso   1.00
C273   C     0.49950   0.36097   0.93609   0.00000  Uiso   1.00
C274   C     0.42369   0.22711  -0.04928   0.00000  Uiso   1.00
H275   H     0.51145   0.14857   1.01488   0.00000  Uiso   1.00
H276   H     0.48695   0.18996   1.00385   0.00000  Uiso   1.00
H277   H     0.35434   0.09113  -0.00385   0.00000  Uiso   1.00
H278   H     0.37884   0.04917   0.00773   0.00000  Uiso   1.00
H279   H     0.44313   0.19609  -0.09087   0.00000  Uiso   1.00
O280   O     0.40343   0.16655  -0.01009   0.00000  Uiso   1.00
O281   O     0.44774   0.25748  -0.09101   0.00000  Uiso   1.00
C282   C     0.44700   0.09566   0.01154   0.00000  Uiso   1.00
C283   C     0.47704   0.13560   1.01088   0.00000  Uiso   1.00
C284   C     0.46302   0.15925   0.00375   0.00000  Uiso   1.00
C285   C     0.41849   0.14339  -0.00335   0.00000  Uiso   1.00
C286   C     0.38862   0.10368   0.00010   0.00000  Uiso   1.00
C287   C     0.40265   0.07987   0.00681   0.00000  Uiso   1.00
C288   C     0.42464   0.19666  -0.05376   0.00000  Uiso   1.00
H289   H     0.38457   0.26597  -0.06877   0.00000  Uiso   1.00
H290   H     0.52049   0.32588   0.91526   0.00000  Uiso   1.00
H291   H     0.39547   0.32756  -0.04810   0.00000  Uiso   1.00
H292   H     0.40680   0.22885  -0.01071   0.00000  Uiso   1.00
H293   H     0.53178   0.38724   0.93665   0.00000  Uiso   1.00
loop_
_geom_bond_atom_site_label_1
_geom_bond_atom_site_label_2
_geom_bond_distance
_geom_bond_site_symmetry_2
_ccdc_geom_bond_type
O0     C6      1.310   .     A
O0     Yb3     2.165   1_556 S
Yb1    O4      2.169   .     S
Yb1    O9      2.150   .     S
Yb1    O17     2.145   .     S
Yb1    O19     2.130   .     S
Yb1    Yb3     2.907   1_556 S
Yb1    O10     2.100   1_556 S
Yb1    O11     2.174   1_556 S
Yb1    O16     2.137   1_556 S
C2     O16     1.283   .     A
C2     C268    1.472   .     S
C2     O17     1.279   1_554 A
Yb3    O10     2.132   .     S
Yb3    O12     2.134   .     S
Yb3    O13     2.215   .     S
Yb3    O18     2.183   .     S
Yb3    O0      2.165   1_554 S
Yb3    Yb1     2.907   1_554 S
Yb3    O7      2.114   1_554 S
Yb3    O19     2.175   1_554 S
O4     C6      1.308   .     A
C5     O18     1.220   .     D
C5     C138    1.474   .     S
C5     O19     1.379   1_554 S
C6     C74     1.483   .     S
O7     C8      1.277   .     A
O7     Yb3     2.114   1_556 S
C8     O12     1.281   1_556 A
C8     C256    1.474   1_556 S
O9     C14     1.228   .     D
O10    Yb1     2.100   1_554 S
O10    C14     1.396   1_554 S
O11    C15     1.304   .     A
O11    Yb1     2.174   1_554 S
O12    C8      1.281   1_554 A
O13    C15     1.316   .     A
C14    O10     1.396   1_556 S
C14    C204    1.475   1_556 S
C15    C60     1.481   .     S
O16    Yb1     2.137   1_554 S
O17    C2      1.279   1_556 A
O19    Yb3     2.175   1_556 S
O19    C5      1.379   1_556 S
O20    Yb23    2.179   .     S
O20    C26     1.310   1_655 A
Yb21   O30     2.169   .     S
Yb21   O31     2.153   .     S
Yb21   O36     2.116   .     S
Yb21   Yb23    2.933   1_454 S
Yb21   O24     2.253   1_554 S
Yb21   O29     2.170   1_554 S
Yb21   O37     2.124   1_554 S
Yb21   O39     2.093   1_454 S
C22    O36     1.281   .     A
C22    C152    1.474   .     S
C22    O37     1.281   1_554 A
Yb23   O27     2.140   .     S
Yb23   O39     2.060   .     S
Yb23   Yb21    2.933   1_656 S
Yb23   O30     2.168   1_656 S
Yb23   O32     2.138   1_556 S
Yb23   O33     2.178   1_556 S
Yb23   O38     2.186   1_556 S
O24    C26     1.327   .     A
O24    Yb21    2.253   1_556 S
C25    O38     1.228   .     D
C25    C164    1.471   .     S
C25    O39     1.379   1_554 S
C26    O20     1.310   1_455 A
C26    C86     1.482   1_455 S
O27    C28     1.282   .     A
C28    C190    1.475   .     S
C28    O32     1.278   1_556 A
O29    C34     1.230   .     D
O29    Yb21    2.170   1_556 S
O30    Yb23    2.168   1_454 S
O30    C34     1.388   1_554 S
O31    C35     1.302   .     A
O32    Yb23    2.138   1_554 S
O32    C28     1.278   1_554 A
O33    Yb23    2.178   1_554 S
O33    C35     1.305   1_655 A
C34    C230    1.471   .     S
C34    O30     1.388   1_556 S
C35    C100    1.483   .     S
C35    O33     1.305   1_455 A
O37    Yb21    2.124   1_556 S
O37    C22     1.281   1_556 A
O38    Yb23    2.186   1_554 S
O39    Yb21    2.093   1_656 S
O39    C25     1.379   1_556 S
O40    C46     1.306   .     A
O40    Yb43    2.165   1_554 S
Yb41   O44     2.161   .     S
Yb41   O49     2.155   .     S
Yb41   O57     2.147   .     S
Yb41   Yb43    2.837   1_564 S
Yb41   O50     2.163   1_554 S
Yb41   O51     2.163   1_554 S
Yb41   O56     2.141   1_554 S
Yb41   O59     2.121   1_565 S
C42    O56     1.283   .     A
C42    C242    1.476   .     S
C42    O57     1.279   1_556 A
Yb43   O52     2.144   .     S
Yb43   O53     2.160   .     S
Yb43   O58     2.152   .     S
Yb43   O40     2.165   1_556 S
Yb43   Yb41    2.837   1_546 S
Yb43   O47     2.144   1_556 S
Yb43   O50     2.118   1_545 S
Yb43   O59     2.164   1_556 S
O44    C46     1.305   1_565 A
C45    O59     1.395   .     S
C45    O58     1.229   1_554 D
C45    C178    1.470   1_554 S
C46    C112    1.482   .     S
C46    O44     1.305   1_545 A
O47    C48     1.283   .     A
O47    Yb43    2.144   1_554 S
C48    C282    1.476   .     S
C48    O52     1.278   1_554 A
O49    C54     1.229   .     D
O50    Yb41    2.163   1_556 S
O50    Yb43    2.118   1_565 S
O50    C54     1.395   1_556 S
O51    Yb41    2.163   1_556 S
O51    C55     1.305   1_565 A
O52    C48     1.278   1_556 A
O53    C55     1.304   .     A
C54    C216    1.474   .     S
C54    O50     1.395   1_554 S
C55    O51     1.305   1_545 A
C55    C126    1.482   1_545 S
O56    Yb41    2.141   1_556 S
O57    C42     1.279   1_554 A
O58    C45     1.229   1_556 D
O59    Yb41    2.121   1_545 S
O59    Yb43    2.164   1_554 S
C60    C61     1.406   .     A
C60    C65     1.406   .     A
C61    C62     1.397   .     A
C61    H83     1.083   .     S
C62    C63     1.409   .     A
C62    H81     1.082   .     S
C63    C64     1.400   .     A
C63    O73     1.407   .     S
C64    C65     1.399   .     A
C64    H82     1.082   .     S
C65    H85     1.083   .     S
C66    O73     1.406   .     S
C66    C80     1.334   .     D
C66    H84     1.088   .     S
H67    C75     1.083   .     S
H68    C76     1.082   .     S
H69    C78     1.083   .     S
H70    C79     1.083   .     S
H71    C80     1.087   .     S
O72    C77     1.408   .     S
O72    C80     1.405   .     S
C74    C75     1.407   .     A
C74    C79     1.406   .     A
C75    C76     1.398   .     A
C76    C77     1.410   .     A
C77    C78     1.400   .     A
C78    C79     1.398   .     A
C86    C87     1.407   .     A
C86    C91     1.406   1_655 A
C86    C26     1.482   1_655 S
C87    C88     1.399   .     A
C87    H109    1.083   .     S
C88    H107    1.082   .     S
C88    C89     1.410   1_655 A
C89    C90     1.399   .     A
C89    O99     1.406   .     S
C89    C88     1.410   1_455 A
C90    C91     1.397   .     A
C90    H108    1.083   .     S
C91    H111    1.083   .     S
C91    C86     1.406   1_455 A
C92    H110    1.087   .     S
C92    O99     1.404   1_655 S
C92    C106    1.333   1_655 D
H93    C101    1.083   .     S
H94    C102    1.082   .     S
H95    C104    1.082   .     S
H96    C105    1.083   .     S
H97    C106    1.088   .     S
O98    C103    1.406   .     S
O98    C106    1.405   1_655 S
O99    C92     1.404   1_455 S
C100   C101    1.407   .     A
C100   C105    1.407   1_455 A
C101   C102    1.397   .     A
C102   C103    1.408   1_455 A
C103   C104    1.399   .     A
C103   C102    1.408   1_655 A
C104   C105    1.399   .     A
C105   C100    1.407   1_655 A
C106   C92     1.333   1_455 D
C106   O98     1.405   1_455 S
C112   C113    1.406   .     A
C112   C117    1.407   1_545 A
C113   C114    1.398   .     A
C113   H135    1.083   .     S
C114   H133    1.082   .     S
C114   C115    1.410   1_545 A
C115   C116    1.399   .     A
C115   O125    1.406   .     S
C115   C114    1.410   1_565 A
C116   C117    1.397   .     A
C116   H134    1.083   .     S
C117   H137    1.083   .     S
C117   C112    1.407   1_565 A
C118   H136    1.088   .     S
C118   O125    1.404   1_545 S
C118   C132    1.332   1_545 D
H119   C127    1.083   .     S
H120   C128    1.082   .     S
H121   C130    1.083   .     S
H122   C131    1.083   .     S
H123   C132    1.088   .     S
O124   C129    1.406   .     S
O124   C132    1.404   1_545 S
O125   C118    1.404   1_565 S
C126   C127    1.406   .     A
C126   C131    1.407   1_565 A
C126   C55     1.482   1_565 S
C127   C128    1.397   .     A
C128   C129    1.410   1_565 A
C129   C130    1.399   .     A
C129   C128    1.410   1_545 A
C130   C131    1.397   .     A
C131   C126    1.407   1_545 A
C132   C118    1.332   1_565 D
C132   O124    1.404   1_565 S
C138   C139    1.403   .     A
C138   C143    1.402   1_554 A
C139   C140    1.397   .     A
C139   H161    1.083   .     S
C140   H159    1.081   .     S
C140   C141    1.414   1_554 A
C141   C142    1.401   .     A
C141   O151    1.411   .     S
C141   C140    1.414   1_556 A
C142   C143    1.399   .     A
C142   H160    1.083   .     S
C143   H163    1.083   .     S
C143   C138    1.402   1_556 A
C144   H162    1.087   .     S
C144   O151    1.402   1_554 S
C144   C158    1.333   1_554 D
H145   C153    1.083   .     S
H146   C154    1.083   .     S
H147   C156    1.083   .     S
H148   C157    1.083   .     S
H149   C158    1.089   .     S
O150   C155    1.400   .     S
O150   C158    1.402   1_554 S
O151   C144    1.402   1_556 S
C152   C157    1.404   .     A
C152   C153    1.406   1_554 A
C153   C154    1.400   .     A
C153   C152    1.406   1_556 A
C154   C155    1.406   1_556 A
C155   C156    1.398   .     A
C155   C154    1.406   1_554 A
C156   C157    1.395   .     A
C158   C144    1.333   1_556 D
C158   O150    1.402   1_556 S
C164   C165    1.404   .     A
C164   C169    1.404   1_554 A
C165   C166    1.399   .     A
C165   H187    1.083   .     S
C166   H185    1.082   .     S
C166   C167    1.407   1_554 A
C167   C168    1.398   .     A
C167   O177    1.401   .     S
C167   C166    1.407   1_556 A
C168   C169    1.397   .     A
C168   H186    1.083   .     S
C169   H189    1.083   .     S
C169   C164    1.404   1_556 A
C170   H188    1.088   .     S
C170   O177    1.401   1_554 S
C170   C184    1.332   1_554 D
H171   C179    1.083   .     S
H172   C180    1.082   .     S
H173   C182    1.082   .     S
H174   C183    1.083   .     S
H175   C184    1.089   .     S
O176   C181    1.399   .     S
O176   C184    1.401   1_554 S
O177   C170    1.401   1_556 S
C178   C179    1.404   .     A
C178   C183    1.403   1_556 A
C178   C45     1.470   1_556 S
C179   C180    1.396   .     A
C180   C181    1.404   1_556 A
C181   C182    1.400   .     A
C181   C180    1.404   1_554 A
C182   C183    1.399   .     A
C183   C178    1.403   1_554 A
C184   C170    1.332   1_556 D
C184   O176    1.401   1_556 S
C190   C191    1.406   .     A
C190   C195    1.404   1_556 A
C191   C192    1.401   .     A
C191   H213    1.083   .     S
C192   H211    1.082   .     S
C192   C193    1.407   1_556 A
C193   C194    1.398   .     A
C193   O203    1.401   .     S
C193   C192    1.407   1_554 A
C194   C195    1.396   .     A
C194   H212    1.083   .     S
C195   H215    1.083   .     S
C195   C190    1.404   1_554 A
C196   O203    1.403   .     S
C196   C210    1.333   .     D
C196   H214    1.088   1_554 S
H197   C205    1.083   .     S
H198   C206    1.083   .     S
H199   C208    1.083   .     S
H200   C209    1.083   .     S
H201   C210    1.090   .     S
O202   C207    1.405   .     S
O202   C210    1.405   .     S
C204   C205    1.404   .     A
C204   C209    1.405   1_554 A
C204   C14     1.475   1_554 S
C205   C206    1.393   .     A
C206   C207    1.406   .     A
C207   C208    1.402   1_554 A
C208   C209    1.404   .     A
C208   C207    1.402   1_556 A
C209   C204    1.405   1_556 A
H214   C196    1.088   1_556 S
C216   C217    1.403   .     A
C216   C221    1.403   1_554 A
C217   C218    1.395   .     A
C217   H239    1.083   .     S
C218   H237    1.081   .     S
C218   C219    1.410   1_554 A
C219   C220    1.400   .     A
C219   O229    1.408   .     S
C219   C218    1.410   1_556 A
C220   C221    1.399   .     A
C220   H238    1.082   .     S
C221   H241    1.082   .     S
C221   C216    1.403   1_556 A
C222   H240    1.088   .     S
C222   O229    1.404   1_554 S
C222   C236    1.332   1_554 D
H223   C231    1.084   .     S
H224   C232    1.083   .     S
H225   C234    1.078   .     S
H226   C235    1.083   .     S
H227   C236    1.082   .     S
O228   C233    1.410   1_554 S
O228   C236    1.404   1_554 S
O229   C222    1.404   1_556 S
C230   C231    1.402   .     A
C230   C235    1.401   1_556 A
C231   C232    1.396   .     A
C232   C233    1.401   .     A
C233   O228    1.410   1_556 S
C233   C234    1.415   1_556 A
C234   C235    1.399   .     A
C234   C233    1.415   1_554 A
C235   C230    1.401   1_554 A
C236   C222    1.332   1_556 D
C236   O228    1.404   1_556 S
C242   C243    1.404   .     A
C242   C247    1.406   .     A
C243   H265    1.083   .     S
C243   C244    1.393   1_556 A
C244   C245    1.408   .     A
C244   H263    1.083   .     S
C244   C243    1.393   1_554 A
C245   C246    1.402   .     A
C245   O255    1.407   .     S
C246   H264    1.083   .     S
C246   C247    1.402   1_554 A
C247   H267    1.083   .     S
C247   C246    1.402   1_556 A
C248   O255    1.405   .     S
C248   C262    1.332   .     D
C248   H266    1.089   .     S
H249   C257    1.083   .     S
H250   C258    1.082   .     S
H251   C260    1.083   .     S
H252   C261    1.083   .     S
H253   C262    1.088   .     S
O254   C259    1.401   .     S
O254   C262    1.402   .     S
C256   C257    1.405   .     A
C256   C261    1.404   .     A
C256   C8      1.474   1_554 S
C257   C258    1.401   .     A
C258   C259    1.408   .     A
C259   C260    1.397   .     A
C260   C261    1.394   .     A
C268   C269    1.404   .     A
C268   C273    1.404   1_554 A
C269   C270    1.402   .     A
C269   H291    1.083   .     S
C270   C271    1.409   .     A
C270   H289    1.082   .     S
C271   O281    1.401   .     S
C271   C272    1.397   1_554 A
C272   C273    1.393   .     A
C272   H290    1.083   .     S
C272   C271    1.397   1_556 A
C273   H293    1.084   .     S
C273   C268    1.404   1_556 A
C274   O281    1.403   .     S
C274   C288    1.333   .     D
C274   H292    1.087   .     S
H275   C283    1.083   .     S
H276   C284    1.083   1_556 S
H277   C286    1.083   .     S
H278   C287    1.083   .     S
H279   C288    1.089   .     S
O280   C285    1.407   .     S
O280   C288    1.405   .     S
C282   C287    1.405   .     A
C282   C283    1.404   1_554 A
C283   C282    1.404   1_556 A
C283   C284    1.395   1_556 A
C284   C285    1.408   .     A
C284   H276    1.083   1_554 S
C284   C283    1.395   1_554 A
C285   C286    1.401   .     A
C286   C287    1.401   .     A
