data_kag+N106+E8
_audit_creation_date              2025-01-21
_audit_creation_method            'Materials Studio'
_symmetry_space_group_name_H-M    'P1'
_symmetry_Int_Tables_number       1
_symmetry_cell_setting            triclinic
loop_
_symmetry_equiv_pos_as_xyz
  x,y,z
_cell_length_a                    29.3016
_cell_length_b                    31.4918
_cell_length_c                    12.5925
_cell_angle_alpha                 88.0515
_cell_angle_beta                  76.7559
_cell_angle_gamma                 128.8301
loop_
_atom_site_label
_atom_site_type_symbol
_atom_site_fract_x
_atom_site_fract_y
_atom_site_fract_z
_atom_site_U_iso_or_equiv
_atom_site_adp_type
_atom_site_occupancy
Y0     Y     0.52471   0.55597   0.02232   0.00000  Uiso   1.00
Y1     Y     0.45121   0.42708   1.07990   0.00000  Uiso   1.00
O2     O     0.59640   0.54493   0.00479   0.00000  Uiso   1.00
O3     O     0.51919   0.49641   0.92244   0.00000  Uiso   1.00
C4     C     0.46826   0.35413   1.06635   0.00000  Uiso   1.00
O5     O     0.42832   0.42717   0.92114   0.00000  Uiso   1.00
O6     O     0.56130   0.64359   0.02805   0.00000  Uiso   1.00
O7     O     0.54262   0.61644   0.88134   0.00000  Uiso   1.00
O8     O     0.53089   0.46760   1.14237   0.00000  Uiso   1.00
O9     O     0.45576   0.48909   0.18030   0.00000  Uiso   1.00
O10    O     0.54253   0.56514   0.18696   0.00000  Uiso   1.00
O11    O     0.42257   0.50745   0.04052   0.00000  Uiso   1.00
C12    C     0.58482   0.50553   1.07378   0.00000  Uiso   1.00
O13    O     0.36546   0.41604   1.12187   0.00000  Uiso   1.00
C14    C     0.47705   0.47158   0.86526   0.00000  Uiso   1.00
O15    O     0.50282   0.40147   1.00124   0.00000  Uiso   1.00
O16    O     0.42020   0.34138   0.13661   0.00000  Uiso   1.00
C17    C     0.55613   0.65367  -0.06425   0.00000  Uiso   1.00
C18    C     0.36993   0.45727   0.08378   0.00000  Uiso   1.00
C19    C     0.49488   0.51955   0.24224   0.00000  Uiso   1.00
Y20    Y     0.95657   0.51918   0.03132   0.00000  Uiso   1.00
Y21    Y     0.03909   0.48365   1.00559   0.00000  Uiso   1.00
O22    O     0.05314   0.60400  -0.01366   0.00000  Uiso   1.00
O23    O     1.03018   0.53196   0.88727   0.00000  Uiso   1.00
C24    C     0.12619   0.47810   1.01305   0.00000  Uiso   1.00
O25    O     0.02666   0.46591   0.83739   0.00000  Uiso   1.00
O26    O     0.86137   0.49216   0.09628   0.00000  Uiso   1.00
O27    O     0.92644   0.56150   0.95925   0.00000  Uiso   1.00
O28    O     0.09530   0.57013   1.03751   0.00000  Uiso   1.00
O29    O    -0.03456   0.47091   0.14972   0.00000  Uiso   1.00
O30    O     0.97166   0.53862   0.19718   0.00000  Uiso   1.00
O31    O     0.90107   0.43247  -0.00190   0.00000  Uiso   1.00
C32    C     0.09855   0.61117   1.00526   0.00000  Uiso   1.00
O33    O     0.94568   0.39899   1.03887   0.00000  Uiso   1.00
C34    C     0.01955   0.49840   0.81230   0.00000  Uiso   1.00
O35    O     0.13423   0.51267   0.94098   0.00000  Uiso   1.00
O36    O     0.07145   0.44376   0.07957   0.00000  Uiso   1.00
C37    C     0.87160   0.52882   0.02610   0.00000  Uiso   1.00
C38    C     0.90096   0.39215   0.01814   0.00000  Uiso   1.00
C39    C    -0.02242   0.50536   0.22328   0.00000  Uiso   1.00
Y40    Y     0.49671   0.04388   0.95499   0.00000  Uiso   1.00
Y41    Y     0.54198   0.97449  -0.08066   0.00000  Uiso   1.00
O42    O     0.40564   0.95700   0.98795   0.00000  Uiso   1.00
O43    O     0.48361  -0.02335   0.06849   0.00000  Uiso   1.00
C44    C     0.56317   0.90414  -0.12921   0.00000  Uiso   1.00
O45    O     0.55910   0.98438   0.08657   0.00000  Uiso   1.00
O46    O     0.52107   0.12786   0.92631   0.00000  Uiso   1.00
O47    O     0.44611   0.06610   0.06765   0.00000  Uiso   1.00
O48    O     0.44582   0.92041  -0.09758   0.00000  Uiso   1.00
O49    O     0.55535   1.04180   0.80571   0.00000  Uiso   1.00
O50    O     0.47866   0.03266   0.78890   0.00000  Uiso   1.00
O51    O     0.58885   0.09482   0.98140   0.00000  Uiso   1.00
C52    C     0.39964   0.91761  -0.05276   0.00000  Uiso   1.00
O53    O     0.63281   0.06162  -0.10453   0.00000  Uiso   1.00
C54    C     0.52025  -0.01297   0.13308   0.00000  Uiso   1.00
O55    O     0.51809   0.89112  -0.05087   0.00000  Uiso   1.00
O56    O     0.59784   0.95411   0.81521   0.00000  Uiso   1.00
C57    C     0.47970   0.11592   1.01220   0.00000  Uiso   1.00
C58    C     0.63593   0.09882   0.94111   0.00000  Uiso   1.00
C59    C     0.51794   1.03051   0.74209   0.00000  Uiso   1.00
C60    C     0.51538   0.51991   0.52018   0.00000  Uiso   1.00
C61    C     0.45475   0.47527   0.58996   0.00000  Uiso   1.00
N62    N     0.40825   0.44526   0.54482   0.00000  Uiso   1.00
C63    C     0.41979   0.45791   0.43237   0.00000  Uiso   1.00
C64    C     0.48045   0.50245   0.36257   0.00000  Uiso   1.00
N65    N     0.52678   0.53252   0.40840   0.00000  Uiso   1.00
N66    N     0.56192   0.54965   0.56521   0.00000  Uiso   1.00
C67    C     0.55067   0.53641   0.67726   0.00000  Uiso   1.00
C68    C     0.49020   0.49124   0.74689   0.00000  Uiso   1.00
N69    N     0.44361   0.46192   0.70148   0.00000  Uiso   1.00
H70    H     0.38196   0.43411   0.39813   0.00000  Uiso   1.00
H71    H     0.58869   0.55978   0.71110   0.00000  Uiso   1.00
C72    C     0.01159   0.48972   0.52385   0.00000  Uiso   1.00
C73    C     0.98658   0.51495   0.51097   0.00000  Uiso   1.00
N74    N     0.97254   0.53411   0.59671   0.00000  Uiso   1.00
C75    C     0.98294   0.52962   0.69478   0.00000  Uiso   1.00
C76    C     1.00782   0.50427   0.70798   0.00000  Uiso   1.00
N77    N     0.02151   0.48486   0.62195   0.00000  Uiso   1.00
N78    N     0.02534   0.47032   0.43827   0.00000  Uiso   1.00
C79    C     0.01470   0.47460   0.34040   0.00000  Uiso   1.00
C80    C    -0.01030   0.49981   0.32730   0.00000  Uiso   1.00
N81    N     0.97630   0.51948   0.41312   0.00000  Uiso   1.00
H82    H     0.97127   0.54507   0.76201   0.00000  Uiso   1.00
H83    H     0.02647   0.45921   0.27310   0.00000  Uiso   1.00
C84    C     0.54195   0.00756   0.41124   0.00000  Uiso   1.00
C85    C     0.49633   1.01007   0.46376   0.00000  Uiso   1.00
N86    N     0.45957   1.00547   0.40728   0.00000  Uiso   1.00
C87    C     0.46617   0.99821   0.30056   0.00000  Uiso   1.00
C88    C     0.51180  -0.00438   0.24767   0.00000  Uiso   1.00
N89    N     0.54863   0.00038   0.30472   0.00000  Uiso   1.00
N90    N     0.57873   0.01217   0.46767   0.00000  Uiso   1.00
C91    C     0.57204   0.01934   0.57447   0.00000  Uiso   1.00
C92    C     0.52648   0.02201   0.62733   0.00000  Uiso   1.00
N93    N     0.48964   1.01722   0.57028   0.00000  Uiso   1.00
H94    H     0.43625   0.99463   0.25756   0.00000  Uiso   1.00
H95    H     0.60198   0.02292   0.61742   0.00000  Uiso   1.00
C96    C     0.27532   0.49026   0.03228   0.00000  Uiso   1.00
C97    C     0.21461   0.43912   1.07944   0.00000  Uiso   1.00
N98    N     0.20512   0.39392   1.12903   0.00000  Uiso   1.00
C99    C     0.25367   0.39769   1.13316   0.00000  Uiso   1.00
C100   C     0.31446   0.44919   1.08603   0.00000  Uiso   1.00
N101   N     0.32322   0.49393   0.03697   0.00000  Uiso   1.00
N102   N     0.28583   0.53544  -0.01908   0.00000  Uiso   1.00
C103   C     0.23823   0.53189  -0.02653   0.00000  Uiso   1.00
C104   C     0.17717   0.48092   0.02046   0.00000  Uiso   1.00
N105   N     0.16650   0.43550   1.07335   0.00000  Uiso   1.00
H106   H     0.24493   0.36099   1.17205   0.00000  Uiso   1.00
H107   H     0.24795   0.56885  -0.06736   0.00000  Uiso   1.00
C108   C     0.79894   0.24809  -0.02836   0.00000  Uiso   1.00
C109   C     0.74225   0.23617   0.00252   0.00000  Uiso   1.00
N110   N     0.73812   0.27357   0.04103   0.00000  Uiso   1.00
C111   C     0.78865   0.32329   1.04909   0.00000  Uiso   1.00
C112   C     0.84595   0.33615   0.01775   0.00000  Uiso   1.00
N113   N     0.85002   0.29810  -0.01995   0.00000  Uiso   1.00
N114   N     0.80190   0.20998  -0.06888   0.00000  Uiso   1.00
C115   C     0.75067   0.16077  -0.08027   0.00000  Uiso   1.00
C116   C     0.69419   0.14956  -0.04983   0.00000  Uiso   1.00
N117   N     0.69202   0.18771  -0.00870   0.00000  Uiso   1.00
H118   H     0.78413   0.35272   1.07924   0.00000  Uiso   1.00
H119   H     0.75392   0.13099  -0.11227   0.00000  Uiso   1.00
C120   C     0.71845   0.49035   0.07456   0.00000  Uiso   1.00
C121   C     0.73594   0.54019   1.01869   0.00000  Uiso   1.00
N122   N     0.79672   0.58452   0.96505   0.00000  Uiso   1.00
C123   C     0.84110   0.58157   0.96482   0.00000  Uiso   1.00
C124   C     0.82420   0.53241   1.02257   0.00000  Uiso   1.00
N125   N     0.76297   0.48766   0.07587   0.00000  Uiso   1.00
N126   N     0.65714   0.44506   0.12482   0.00000  Uiso   1.00
C127   C     0.61265   0.44746   0.12362   0.00000  Uiso   1.00
C128   C     0.63090   0.49942   0.07240   0.00000  Uiso   1.00
N129   N     0.69206   0.54377   1.01967   0.00000  Uiso   1.00
H130   H     0.88924   0.61760   0.92122   0.00000  Uiso   1.00
H131   H     0.56476   0.40973   0.16114   0.00000  Uiso   1.00
C132   C     0.27452   0.76996   0.94914   0.00000  Uiso   1.00
C133   C     0.22153   0.76449  -0.01849   0.00000  Uiso   1.00
N134   N     0.22786   0.81007  -0.00083   0.00000  Uiso   1.00
C135   C     0.28457   0.86048  -0.01300   0.00000  Uiso   1.00
C136   C     0.33747   0.86561   0.95516   0.00000  Uiso   1.00
N137   N     0.33071   0.82002   0.93652   0.00000  Uiso   1.00
N138   N     0.26900   0.72482   0.93394   0.00000  Uiso   1.00
C139   C     0.21273   0.67398   0.95083   0.00000  Uiso   1.00
C140   C     0.15915   0.66770   0.98384   0.00000  Uiso   1.00
N141   N     0.16471   0.71340  -0.00226   0.00000  Uiso   1.00
H142   H     0.28812   0.89590   0.00273   0.00000  Uiso   1.00
H143   H     0.20985   0.63861   0.93832   0.00000  Uiso   1.00
C144   C     0.53229   0.77081  -0.10527   0.00000  Uiso   1.00
C145   C     0.59202   0.78873  -0.14649   0.00000  Uiso   1.00
N146   N     0.64103   0.84424  -0.19136   0.00000  Uiso   1.00
C147   C     0.63306   0.88259  -0.19428   0.00000  Uiso   1.00
C148   C     0.57362   0.86468  -0.14734   0.00000  Uiso   1.00
N149   N     0.52476   0.80906  -0.10500   0.00000  Uiso   1.00
N150   N     0.48297   0.71579  -0.06072   0.00000  Uiso   1.00
C151   C     0.49045   0.67759  -0.05362   0.00000  Uiso   1.00
C152   C     0.55008   0.69526  -0.09021   0.00000  Uiso   1.00
N153   N     0.59999   0.75060  -0.13648   0.00000  Uiso   1.00
H154   H     0.67298   0.92675  -0.22763   0.00000  Uiso   1.00
H155   H     0.45032   0.63394  -0.01529   0.00000  Uiso   1.00
C156   C     0.45148   0.22829   1.09178   0.00000  Uiso   1.00
C157   C     0.50894   0.24879   1.01977   0.00000  Uiso   1.00
N158   N     0.55483   0.30503   0.97388   0.00000  Uiso   1.00
C159   C     0.54487   0.34153   0.99270   0.00000  Uiso   1.00
C160   C     0.48467   0.31912   1.05781   0.00000  Uiso   1.00
N161   N     0.44040   0.26370   1.10759   0.00000  Uiso   1.00
N162   N     0.40643   0.17278   1.14099   0.00000  Uiso   1.00
C163   C     0.41548   0.13616   1.11975   0.00000  Uiso   1.00
C164   C     0.47134   0.15569   1.04325   0.00000  Uiso   1.00
N165   N     0.51729   0.21185   0.99585   0.00000  Uiso   1.00
H166   H     0.58371   0.38785   0.95748   0.00000  Uiso   1.00
H167   H     0.37855   0.09189   1.15950   0.00000  Uiso   1.00
loop_
_geom_bond_atom_site_label_1
_geom_bond_atom_site_label_2
_geom_bond_distance
_geom_bond_site_symmetry_2
_ccdc_geom_bond_type
Y0     O2      2.300   .     S
Y0     O6      2.260   .     S
Y0     O9      2.239   .     S
Y0     O10     2.236   .     S
Y0     O11     2.296   .     S
Y0     O3      2.236   1_554 S
Y0     O7      2.268   1_554 S
Y1     O3      2.260   .     S
Y1     O5      2.250   .     S
Y1     O8      2.207   .     S
Y1     O13     2.235   .     S
Y1     O15     2.194   .     S
Y1     O9      2.313   1_556 S
Y1     O16     2.262   1_556 S
O2     C12     1.293   1_554 A
O3     C14     1.374   .     S
O3     Y0      2.236   1_556 S
C4     O15     1.251   .     A
C4     C160    1.452   .     S
C4     O16     1.274   1_556 A
O5     C14     1.208   .     D
O6     C17     1.261   .     A
O7     Y0      2.268   1_556 S
O7     C17     1.264   1_556 A
O8     C12     1.268   .     A
O9     C19     1.387   .     S
O9     Y1      2.313   1_554 S
O10    C19     1.212   .     D
O11    C18     1.293   .     A
C12    O2      1.293   1_556 A
C12    C128    1.475   1_556 S
O13    C18     1.284   1_556 A
C14    C68     1.459   .     S
O16    Y1      2.262   1_554 S
O16    C4      1.274   1_554 A
C17    C152    1.464   .     S
C17    O7      1.264   1_554 A
C18    O13     1.284   1_554 A
C18    C100    1.472   1_554 S
C19    C64     1.460   .     S
Y20    O26     2.260   .     S
Y20    O30     2.259   .     S
Y20    O31     2.257   .     S
Y20    O22     2.269   1_655 S
Y20    O23     2.274   1_554 S
Y20    O27     2.267   1_554 S
Y20    O29     2.262   1_655 S
Y21    O25     2.260   .     S
Y21    O28     2.246   .     S
Y21    O35     2.233   .     S
Y21    O23     2.264   1_455 S
Y21    O29     2.277   1_556 S
Y21    O33     2.241   1_455 S
Y21    O36     2.272   1_556 S
O22    Y20     2.269   1_455 S
O22    C32     1.285   1_554 A
O23    Y20     2.274   1_556 S
O23    Y21     2.264   1_655 S
O23    C34     1.376   1_655 S
C24    O35     1.256   .     A
C24    O36     1.262   1_556 A
C24    C104    1.465   1_556 S
O25    C34     1.211   .     D
O26    C37     1.257   .     A
O27    Y20     2.267   1_556 S
O27    C37     1.264   1_556 A
O28    C32     1.279   .     A
O29    C39     1.377   .     S
O29    Y20     2.262   1_455 S
O29    Y21     2.277   1_554 S
O30    C39     1.210   1_655 D
O31    C38     1.284   .     A
C32    C140    1.476   .     S
C32    O22     1.285   1_556 A
O33    Y21     2.241   1_655 S
O33    C38     1.280   1_556 A
C34    O23     1.376   1_455 S
C34    C76     1.466   1_455 S
O36    Y21     2.272   1_554 S
O36    C24     1.262   1_554 A
C37    O27     1.264   1_554 A
C37    C124    1.472   1_554 S
C38    C112    1.466   .     S
C38    O33     1.280   1_554 A
C39    C80     1.466   .     S
C39    O30     1.210   1_455 D
Y40    O46     2.255   .     S
Y40    O50     2.259   .     S
Y40    O51     2.234   .     S
Y40    O42     2.245   1_545 S
Y40    O43     2.279   1_556 S
Y40    O47     2.260   1_556 S
Y40    O49     2.271   1_545 S
Y41    O45     2.262   .     S
Y41    O48     2.273   .     S
Y41    O55     2.243   .     S
Y41    O43     2.267   1_565 S
Y41    O49     2.278   1_554 S
Y41    O53     2.263   1_565 S
Y41    O56     2.281   1_554 S
O42    Y40     2.245   1_565 S
O42    C52     1.282   1_556 A
O43    C54     1.378   .     S
O43    Y40     2.279   1_554 S
O43    Y41     2.267   1_545 S
C44    O55     1.258   .     A
C44    C148    1.468   .     S
C44    O56     1.262   1_554 A
O45    C54     1.209   1_565 D
O46    C57     1.257   .     A
O47    Y40     2.260   1_554 S
O47    C57     1.262   1_554 A
O48    C52     1.286   .     A
O49    C59     1.379   .     S
O49    Y40     2.271   1_565 S
O49    Y41     2.278   1_556 S
O50    C59     1.211   1_545 D
O51    C58     1.278   .     A
C52    O42     1.282   1_554 A
C52    C136    1.475   1_554 S
O53    Y41     2.263   1_545 S
O53    C58     1.283   1_554 A
C54    C88     1.471   .     S
C54    O45     1.209   1_545 D
O56    Y41     2.281   1_556 S
O56    C44     1.262   1_556 A
C57    C164    1.468   .     S
C57    O47     1.262   1_556 A
C58    O53     1.283   1_556 A
C58    C116    1.470   1_556 S
C59    O50     1.211   1_565 D
C59    C92     1.472   1_565 S
C60    C61     1.405   .     A
C60    N65     1.353   .     A
C60    N66     1.359   .     A
C61    N62     1.360   .     A
C61    N69     1.354   .     A
N62    C63     1.361   .     A
C63    C64     1.405   .     A
C63    H70     1.084   .     S
C64    N65     1.363   .     A
N66    C67     1.359   .     A
C67    C68     1.405   .     A
C67    H71     1.084   .     S
C68    N69     1.362   .     A
C72    N77     1.357   .     A
C72    N78     1.361   .     A
C72    C73     1.403   1_455 A
C73    N74     1.361   .     A
C73    N81     1.357   .     A
C73    C72     1.403   1_655 A
N74    C75     1.361   .     A
C75    C76     1.404   .     A
C75    H82     1.084   .     S
C76    N77     1.364   1_655 A
C76    C34     1.466   1_655 S
N77    C76     1.364   1_455 A
N78    C79     1.361   .     A
C79    C80     1.404   .     A
C79    H83     1.084   .     S
C80    N81     1.364   1_455 A
N81    C80     1.364   1_655 A
C84    N89     1.358   .     A
C84    N90     1.360   .     A
C84    C85     1.400   1_545 A
C85    N86     1.360   .     A
C85    N93     1.358   .     A
C85    C84     1.400   1_565 A
N86    C87     1.361   .     A
C87    H94     1.083   .     S
C87    C88     1.404   1_565 A
C88    N89     1.365   .     A
C88    C87     1.404   1_545 A
N90    C91     1.361   .     A
C91    C92     1.404   .     A
C91    H95     1.083   .     S
C92    N93     1.365   1_545 A
C92    C59     1.472   1_545 S
N93    C92     1.365   1_565 A
C96    N101    1.350   .     A
C96    N102    1.354   .     A
C96    C97     1.403   1_554 A
C97    N98     1.363   .     A
C97    N105    1.362   .     A
C97    C96     1.403   1_556 A
N98    C99     1.365   .     A
C99    C100    1.408   .     A
C99    H106    1.083   .     S
C100   N101    1.359   1_556 A
C100   C18     1.472   1_556 S
N101   C100    1.359   1_554 A
N102   C103    1.353   .     A
C103   C104    1.406   .     A
C103   H107    1.085   .     S
C104   N105    1.366   1_554 A
C104   C24     1.465   1_554 S
N105   C104    1.366   1_556 A
C108   C109    1.401   .     A
C108   N113    1.364   .     A
C108   N114    1.364   .     A
C109   N110    1.352   .     A
C109   N117    1.345   .     A
N110   C111    1.352   1_554 A
C111   H118    1.084   .     S
C111   N110    1.352   1_556 A
C111   C112    1.404   1_556 A
C112   N113    1.367   .     A
C112   C111    1.404   1_554 A
N114   C115    1.368   .     A
C115   C116    1.406   .     A
C115   H119    1.082   .     S
C116   N117    1.356   .     A
C116   C58     1.470   1_554 S
C120   N125    1.363   .     A
C120   N126    1.366   .     A
C120   C121    1.404   1_554 A
C121   N122    1.358   .     A
C121   N129    1.357   .     A
C121   C120    1.404   1_556 A
N122   C123    1.360   .     A
C123   C124    1.403   .     A
C123   H130    1.084   .     S
C124   N125    1.367   1_556 A
C124   C37     1.472   1_556 S
N125   C124    1.367   1_554 A
N126   C127    1.356   .     A
C127   C128    1.433   .     A
C127   H131    1.082   .     S
C128   N129    1.362   1_554 A
C128   C12     1.475   1_554 S
N129   C128    1.362   1_556 A
C132   N137    1.353   .     A
C132   N138    1.352   .     A
C132   C133    1.406   1_556 A
C133   N134    1.361   .     A
C133   N141    1.366   .     A
C133   C132    1.406   1_554 A
N134   C135    1.365   .     A
C135   H142    1.083   .     S
C135   C136    1.409   1_554 A
C136   N137    1.358   .     A
C136   C135    1.409   1_556 A
C136   C52     1.475   1_556 S
N138   C139    1.354   .     A
C139   C140    1.408   .     A
C139   H143    1.083   .     S
C140   N141    1.365   1_556 A
N141   C140    1.365   1_554 A
C144   C145    1.406   .     A
C144   N149    1.354   .     A
C144   N150    1.352   .     A
C145   N146    1.360   .     A
C145   N153    1.367   .     A
N146   C147    1.367   .     A
C147   C148    1.405   .     A
C147   H154    1.083   .     S
C148   N149    1.358   .     A
N150   C151    1.355   .     A
C151   C152    1.403   .     A
C151   H155    1.083   .     S
C152   N153    1.364   .     A
C156   C157    1.404   .     A
C156   N161    1.352   .     A
C156   N162    1.357   .     A
C157   N158    1.366   .     A
C157   N165    1.361   .     A
N158   C159    1.367   .     A
C159   C160    1.421   .     A
C159   H166    1.124   .     S
C160   N161    1.355   .     A
N162   C163    1.358   .     A
C163   C164    1.400   .     A
C163   H167    1.085   .     S
C164   N165    1.368   .     A
