data_kag+N248+E70
_audit_creation_date              2025-01-21
_audit_creation_method            'Materials Studio'
_symmetry_space_group_name_H-M    'P1'
_symmetry_Int_Tables_number       1
_symmetry_cell_setting            triclinic
loop_
_symmetry_equiv_pos_as_xyz
  x,y,z
_cell_length_a                    22.0128
_cell_length_b                    23.9736
_cell_length_c                    10.3193
_cell_angle_alpha                 97.4913
_cell_angle_beta                  96.0169
_cell_angle_gamma                 129.3519
loop_
_atom_site_label
_atom_site_type_symbol
_atom_site_fract_x
_atom_site_fract_y
_atom_site_fract_z
_atom_site_U_iso_or_equiv
_atom_site_adp_type
_atom_site_occupancy
O0     O     0.53626   0.56194   0.79407   0.00000  Uiso   1.00
Yb1    Yb    0.45826   0.40539   0.95397   0.00000  Uiso   1.00
C2     C     0.39815   0.27461  -0.07513   0.00000  Uiso   1.00
Yb3    Yb    0.53442   0.56668   0.00542   0.00000  Uiso   1.00
O4     O     0.42922   0.44259   0.78044   0.00000  Uiso   1.00
C5     C     0.38278   0.49297  -0.04039   0.00000  Uiso   1.00
C6     C     0.47411   0.49662   0.72080   0.00000  Uiso   1.00
O7     O     0.51333   0.64275   1.01002   0.00000  Uiso   1.00
C8     C     0.58926   0.69893   1.05342   0.00000  Uiso   1.00
O9     O     0.54075   0.42888   0.82884   0.00000  Uiso   1.00
O10    O     0.57882   0.50928   0.01964   0.00000  Uiso   1.00
O11    O     0.42373   0.42139   0.13691   0.00000  Uiso   1.00
O12    O     0.63430   0.68324   0.07783   0.00000  Uiso   1.00
O13    O     0.51431   0.54894   0.20597   0.00000  Uiso   1.00
C14    C     0.59769   0.49000   0.90731   0.00000  Uiso   1.00
C15    C     0.46090   0.48362   0.22739   0.00000  Uiso   1.00
O16    O     0.46812   0.32900   0.00558   0.00000  Uiso   1.00
O17    O     0.35795   0.29119   0.87023   0.00000  Uiso   1.00
O18    O     0.43229   0.56141  -0.00385   0.00000  Uiso   1.00
O19    O     0.41633   0.46293   0.91259   0.00000  Uiso   1.00
O20    O     0.95977   0.52106   0.78726   0.00000  Uiso   1.00
Yb21   Yb    0.06206   0.49524   0.01485   0.00000  Uiso   1.00
C22    C     0.14163   0.45395   0.00880   0.00000  Uiso   1.00
Yb23   Yb    0.95861   0.53375   0.99573   0.00000  Uiso   1.00
O24    O     0.04090   0.49034   0.79517   0.00000  Uiso   1.00
C25    C     0.86346   0.39507  -0.02862   0.00000  Uiso   1.00
C26    C     0.99174   0.49692   0.72998   0.00000  Uiso   1.00
O27    O     0.83597   0.48910   0.94745   0.00000  Uiso   1.00
C28    C     0.85916   0.55451   0.96886   0.00000  Uiso   1.00
O29    O     0.13142   0.57564   0.89745   0.00000  Uiso   1.00
O30    O     0.08826   0.60011   0.05733   0.00000  Uiso   1.00
O31    O     0.03657   0.48456   0.21058   0.00000  Uiso   1.00
O32    O     0.93562   0.60830   0.01280   0.00000  Uiso   1.00
O33    O     0.96672   0.52702   0.20211   0.00000  Uiso   1.00
C34    C     0.13336   0.62369   0.96216   0.00000  Uiso   1.00
C35    C    -0.00568   0.49917   0.25896   0.00000  Uiso   1.00
O36    O     0.17525   0.52161   0.06238   0.00000  Uiso   1.00
O37    O     0.06452   0.40807   0.96717   0.00000  Uiso   1.00
O38    O     0.83694   0.42724  -0.02667   0.00000  Uiso   1.00
O39    O     0.93856   0.43687   0.94277   0.00000  Uiso   1.00
O40    O     0.52508   0.06862   0.28517   0.00000  Uiso   1.00
Yb41   Yb    0.54313   0.97699   0.04684   0.00000  Uiso   1.00
C42    C     0.58989   0.90403   1.04159   0.00000  Uiso   1.00
Yb43   Yb    0.50187   0.06857   1.07969   0.00000  Uiso   1.00
O44    O     0.55418   0.99239   0.26180   0.00000  Uiso   1.00
C45    C     0.64940   0.16928   0.09620   0.00000  Uiso   1.00
C46    C     0.54663   0.03512   0.33379   0.00000  Uiso   1.00
O47    O     0.41191   0.07624   0.06983   0.00000  Uiso   1.00
C48    C     0.41363   0.08338  -0.05061   0.00000  Uiso   1.00
O49    O     0.43546   0.86153   0.00408   0.00000  Uiso   1.00
O50    O     0.42614   0.94915   1.02977   0.00000  Uiso   1.00
O51    O     0.53064   0.97715   0.83848   0.00000  Uiso   1.00
O52    O     0.45688   0.07347   0.89155   0.00000  Uiso   1.00
O53    O     0.49910   0.05253   0.86273   0.00000  Uiso   1.00
C54    C     0.38885   0.87372   0.00176   0.00000  Uiso   1.00
C55    C     0.52142   0.02046   0.79617   0.00000  Uiso   1.00
O56    O     0.51427   0.87094   1.02093   0.00000  Uiso   1.00
O57    O     0.63750   0.97430   0.05655   0.00000  Uiso   1.00
O58    O     0.60581   0.18336   1.11633   0.00000  Uiso   1.00
O59    O     0.61265   0.09402   0.07594   0.00000  Uiso   1.00
N60    N     0.48533   0.50809   0.48167   0.00000  Uiso   1.00
H61    H     0.30592   0.39848   0.26596   0.00000  Uiso   1.00
C62    C     0.43538   0.47740   0.35666   0.00000  Uiso   1.00
C63    C     0.35455   0.42938   0.35654   0.00000  Uiso   1.00
C64    C     0.44102   0.48263   0.57534   0.00000  Uiso   1.00
S65    S     0.33790   0.42080   0.51254   0.00000  Uiso   1.00
N66    N     0.01184   0.50356   0.50055   0.00000  Uiso   1.00
H67    H     0.83660   0.38519   0.57759   0.00000  Uiso   1.00
C68    C     0.96447   0.47029   0.58464   0.00000  Uiso   1.00
C69    C     0.88319   0.41570   0.52355   0.00000  Uiso   1.00
C70    C     0.96461   0.47264   0.37456   0.00000  Uiso   1.00
S71    S     0.86251   0.40368   0.35516   0.00000  Uiso   1.00
N72    N     0.52489   1.00915   0.55529   0.00000  Uiso   1.00
H73    H     0.67499   0.17110   0.50334   0.00000  Uiso   1.00
C74    C     0.57102   0.05414   0.47957   0.00000  Uiso   1.00
C75    C     0.63434   0.12698   0.54992   0.00000  Uiso   1.00
C76    C     0.55513   0.04954   0.68420   0.00000  Uiso   1.00
S77    S     0.63905   0.14224   0.71639   0.00000  Uiso   1.00
N78    N     0.26870   0.48264  -0.00265   0.00000  Uiso   1.00
H79    H     0.25157   0.33713   0.88380   0.00000  Uiso   1.00
C80    C     0.29724   0.44958   0.95768   0.00000  Uiso   1.00
C81    C     0.23933   0.37297   0.91826   0.00000  Uiso   1.00
C82    C     0.18877   0.43151  -0.01277   0.00000  Uiso   1.00
S83    S     0.14527   0.34032   0.92800   0.00000  Uiso   1.00
N84    N     0.75193   0.28689   0.04056   0.00000  Uiso   1.00
H85    H     0.90800   0.30807   0.97663   0.00000  Uiso   1.00
C86    C     0.82125   0.32222   1.00086   0.00000  Uiso   1.00
C87    C     0.85199   0.28708   1.00319   0.00000  Uiso   1.00
C88    C     0.72954   0.22454   1.07239   0.00000  Uiso   1.00
S89    S     0.79233   0.20640   1.05307   0.00000  Uiso   1.00
N90    N     0.72109   0.50980  -0.08747   0.00000  Uiso   1.00
H91    H     0.88606   0.68691   0.97622   0.00000  Uiso   1.00
C92    C     0.80156   0.56618   0.94260   0.00000  Uiso   1.00
C93    C     0.82387   0.63501   0.95176   0.00000  Uiso   1.00
C94    C     0.68196   0.53552   0.89901   0.00000  Uiso   1.00
S95    S     0.74281   0.63040   0.92636   0.00000  Uiso   1.00
N96    N     0.26415   0.74195   0.96078   0.00000  Uiso   1.00
H97    H     0.26698   0.88219  -0.01102   0.00000  Uiso   1.00
C98    C     0.30057   0.81400  -0.02483   0.00000  Uiso   1.00
C99    C     0.24825   0.82734  -0.02425   0.00000  Uiso   1.00
C100   C     0.18417   0.70065  -0.04895   0.00000  Uiso   1.00
S101   S     0.15093   0.74876  -0.03796   0.00000  Uiso   1.00
N102   N     0.57566   0.79278   0.04219   0.00000  Uiso   1.00
H103   H     0.75068   0.96463   1.10639   0.00000  Uiso   1.00
C104   C     0.62213   0.86637   1.05466   0.00000  Uiso   1.00
C105   C     0.70405   0.90484   1.09023   0.00000  Uiso   1.00
C106   C     0.62283   0.77580   1.06827   0.00000  Uiso   1.00
S107   S     0.72530   0.84901   1.10882   0.00000  Uiso   1.00
N108   N     0.40713   0.18046   0.95578   0.00000  Uiso   1.00
H109   H     0.27699   0.15035  -0.29584   0.00000  Uiso   1.00
C110   C     0.36935   0.19880  -0.11090   0.00000  Uiso   1.00
C111   C     0.31179   0.14447  -0.22626   0.00000  Uiso   1.00
C112   C     0.37918   0.11290  -0.10752   0.00000  Uiso   1.00
S113   S     0.30550   0.06866  -0.25383   0.00000  Uiso   1.00
loop_
_geom_bond_atom_site_label_1
_geom_bond_atom_site_label_2
_geom_bond_distance
_geom_bond_site_symmetry_2
_ccdc_geom_bond_type
O0     C6      1.286   .     A
O0     Yb3     2.175   1_556 S
Yb1    O4      2.304   .     S
Yb1    O9      2.160   .     S
Yb1    O17     2.106   .     S
Yb1    O19     2.150   .     S
Yb1    Yb3     3.017   1_556 S
Yb1    O10     2.123   1_556 S
Yb1    O11     2.184   1_556 S
Yb1    O16     2.102   1_556 S
C2     O16     1.291   .     A
C2     C110    1.468   .     S
C2     O17     1.288   1_554 A
Yb3    O10     2.144   .     S
Yb3    O12     2.126   .     S
Yb3    O13     2.201   .     S
Yb3    O18     2.161   .     S
Yb3    O0      2.175   1_554 S
Yb3    Yb1     3.017   1_554 S
Yb3    O7      2.145   1_554 S
Yb3    O19     2.126   1_554 S
O4     C6      1.321   .     A
C5     O18     1.228   .     D
C5     O19     1.399   1_554 S
C5     C80     1.460   1_554 S
C6     C64     1.492   .     S
O7     C8      1.280   .     A
O7     Yb3     2.145   1_556 S
C8     C106    1.463   .     S
C8     O12     1.278   1_556 A
O9     C14     1.234   .     D
O10    Yb1     2.123   1_554 S
O10    C14     1.391   1_554 S
O11    C15     1.302   .     A
O11    Yb1     2.184   1_554 S
O12    C8      1.278   1_554 A
O13    C15     1.301   .     A
C14    C94     1.459   .     S
C14    O10     1.391   1_556 S
C15    C62     1.490   .     S
O16    Yb1     2.102   1_554 S
O17    C2      1.288   1_556 A
O19    Yb3     2.126   1_556 S
O19    C5      1.399   1_556 S
O20    C26     1.302   .     A
O20    Yb23    2.138   .     S
Yb21   O30     2.160   .     S
Yb21   O31     2.157   .     S
Yb21   O36     2.125   .     S
Yb21   Yb23    2.949   1_454 S
Yb21   O24     2.238   1_554 S
Yb21   O29     2.186   1_554 S
Yb21   O37     2.120   1_554 S
Yb21   O39     2.094   1_454 S
C22    O36     1.282   .     A
C22    C82     1.463   .     S
C22    O37     1.277   1_554 A
Yb23   O27     2.144   .     S
Yb23   O39     2.051   .     S
Yb23   Yb21    2.949   1_656 S
Yb23   O30     2.163   1_656 S
Yb23   O32     2.137   1_556 S
Yb23   O33     2.154   1_556 S
Yb23   O38     2.189   1_556 S
O24    Yb21    2.238   1_556 S
O24    C26     1.319   1_455 A
C25    O38     1.227   .     D
C25    O39     1.379   1_554 S
C25    C86     1.465   1_554 S
C26    C68     1.447   .     S
C26    O24     1.319   1_655 A
O27    C28     1.280   .     A
C28    C92     1.469   .     S
C28    O32     1.279   1_556 A
O29    C34     1.227   .     D
O29    Yb21    2.186   1_556 S
O30    Yb23    2.163   1_454 S
O30    C34     1.381   1_554 S
O31    C35     1.305   .     A
O32    Yb23    2.137   1_554 S
O32    C28     1.279   1_554 A
O33    Yb23    2.154   1_554 S
O33    C35     1.304   1_655 A
C34    O30     1.381   1_556 S
C34    C100    1.461   1_556 S
C35    O33     1.304   1_455 A
C35    C70     1.445   1_455 S
O37    Yb21    2.120   1_556 S
O37    C22     1.277   1_556 A
O38    Yb23    2.189   1_554 S
O39    Yb21    2.094   1_656 S
O39    C25     1.379   1_556 S
O40    C46     1.289   .     A
O40    Yb43    2.128   1_554 S
Yb41   O44     2.162   .     S
Yb41   O49     2.149   .     S
Yb41   O57     2.111   .     S
Yb41   Yb43    2.856   1_564 S
Yb41   O50     2.192   1_554 S
Yb41   O51     2.140   1_554 S
Yb41   O56     2.163   1_554 S
Yb41   O59     2.131   1_565 S
C42    O56     1.286   .     A
C42    C104    1.470   .     S
C42    O57     1.273   1_556 A
Yb43   O52     2.137   .     S
Yb43   O53     2.209   .     S
Yb43   O58     2.124   .     S
Yb43   O40     2.128   1_556 S
Yb43   Yb41    2.856   1_546 S
Yb43   O47     2.095   1_556 S
Yb43   O50     2.150   1_545 S
Yb43   O59     2.112   1_556 S
O44    C46     1.293   1_565 A
C45    O59     1.403   .     S
C45    O58     1.230   1_554 D
C45    C88     1.463   1_554 S
C46    C74     1.449   .     S
C46    O44     1.293   1_545 A
O47    C48     1.278   .     A
O47    Yb43    2.095   1_554 S
C48    C112    1.455   .     S
C48    O52     1.299   1_554 A
O49    C54     1.231   .     D
O50    Yb41    2.192   1_556 S
O50    Yb43    2.150   1_565 S
O50    C54     1.400   1_556 S
O51    Yb41    2.140   1_556 S
O51    C55     1.295   1_565 A
O52    C48     1.299   1_556 A
O53    C55     1.310   .     A
C54    C98     1.469   .     S
C54    O50     1.400   1_554 S
C55    C76     1.451   .     S
C55    O51     1.295   1_545 A
O56    Yb41    2.163   1_556 S
O57    C42     1.273   1_554 A
O58    C45     1.230   1_556 D
O59    Yb41    2.131   1_545 S
O59    Yb43    2.112   1_554 S
N60    C62     1.358   .     A
N60    C64     1.362   .     A
H61    C63     1.083   .     S
C62    C63     1.376   .     A
C63    S65     1.698   .     A
C64    S65     1.716   .     A
N66    C68     1.339   1_455 A
N66    C70     1.345   1_455 A
H67    C69     1.083   .     S
C68    C69     1.375   .     A
C68    N66     1.339   1_655 A
C69    S71     1.687   .     A
C70    S71     1.712   .     A
C70    N66     1.345   1_655 A
C70    C35     1.445   1_655 S
N72    C74     1.342   1_565 A
N72    C76     1.346   1_565 A
H73    C75     1.083   .     S
C74    C75     1.375   .     A
C74    N72     1.342   1_545 A
C75    S77     1.687   .     A
C76    S77     1.713   .     A
C76    N72     1.346   1_545 A
N78    C82     1.342   .     A
N78    C80     1.338   1_554 A
H79    C81     1.082   .     S
C80    C81     1.375   .     A
C80    N78     1.338   1_556 A
C80    C5      1.460   1_556 S
C81    S83     1.708   .     A
C82    S83     1.716   1_554 A
S83    C82     1.716   1_556 A
N84    C86     1.340   1_554 A
N84    C88     1.346   1_554 A
H85    C87     1.081   .     S
C86    C87     1.376   .     A
C86    N84     1.340   1_556 A
C86    C25     1.465   1_556 S
C87    S89     1.706   .     A
C88    S89     1.714   .     A
C88    N84     1.346   1_556 A
C88    C45     1.463   1_556 S
N90    C92     1.342   1_554 A
N90    C94     1.346   1_554 A
H91    C93     1.082   .     S
C92    C93     1.377   .     A
C92    N90     1.342   1_556 A
C93    S95     1.706   .     A
C94    S95     1.714   .     A
C94    N90     1.346   1_556 A
N96    C98     1.342   1_556 A
N96    C100    1.348   1_556 A
H97    C99     1.082   .     S
C98    C99     1.377   .     A
C98    N96     1.342   1_554 A
C99    S101    1.705   .     A
C100   S101    1.712   .     A
C100   N96     1.348   1_554 A
C100   C34     1.461   1_554 S
N102   C104    1.342   1_554 A
N102   C106    1.350   1_554 A
H103   C105    1.082   .     S
C104   C105    1.379   .     A
C104   N102    1.342   1_556 A
C105   S107    1.700   .     A
C106   S107    1.713   .     A
C106   N102    1.350   1_556 A
N108   C110    1.335   1_556 A
N108   C112    1.343   1_556 A
H109   C111    1.082   .     S
C110   C111    1.380   .     A
C110   N108    1.335   1_554 A
C111   S113    1.715   .     A
C112   S113    1.709   .     A
C112   N108    1.343   1_554 A
