data_kag+N173+E220
_audit_creation_date              2025-01-21
_audit_creation_method            'Materials Studio'
_symmetry_space_group_name_H-M    'P1'
_symmetry_Int_Tables_number       1
_symmetry_cell_setting            triclinic
loop_
_symmetry_equiv_pos_as_xyz
  x,y,z
_cell_length_a                    24.5248
_cell_length_b                    23.7892
_cell_length_c                    10.9512
_cell_angle_alpha                 95.0732
_cell_angle_beta                  102.3887
_cell_angle_gamma                 116.1671
loop_
_atom_site_label
_atom_site_type_symbol
_atom_site_fract_x
_atom_site_fract_y
_atom_site_fract_z
_atom_site_U_iso_or_equiv
_atom_site_adp_type
_atom_site_occupancy
Gd0    Gd    0.55373   0.43444   0.93369   0.00000  Uiso   1.00
Gd1    Gd    0.60537   0.56491  -0.01239   0.00000  Uiso   1.00
O2     O     0.62102   0.59034   0.20498   0.00000  Uiso   1.00
O3     O     0.58229   0.49709   0.11809   0.00000  Uiso   1.00
O4     O     0.46238   0.43782  -0.10054   0.00000  Uiso   1.00
O5     O     0.50606   0.54481   0.95264   0.00000  Uiso   1.00
O6     O     0.62083   0.39396   0.98871   0.00000  Uiso   1.00
O7     O     0.52467   0.34026  -0.00960   0.00000  Uiso   1.00
O8     O     0.53952   0.40399   0.71869   0.00000  Uiso   1.00
C9     C     0.57808   0.34175   1.00459   0.00000  Uiso   1.00
O10    O     0.57860   0.49927   0.80726   0.00000  Uiso   1.00
O11    O     0.65800   0.46172   0.97467   0.00000  Uiso   1.00
C12    C     0.45821   0.48928  -0.07552   0.00000  Uiso   1.00
O13    O     0.70071   0.56973   0.02531   0.00000  Uiso   1.00
O14    O     0.62886   0.64417   0.14721   0.00000  Uiso   1.00
O15    O     0.63189   0.66486   0.96208   0.00000  Uiso   1.00
C16    C     0.59886   0.53349   0.22384   0.00000  Uiso   1.00
C17    C     0.63380   0.68431   0.07557   0.00000  Uiso   1.00
C18    C     0.70645   0.51862   0.00788   0.00000  Uiso   1.00
C19    C     0.56310   0.46127   0.70205   0.00000  Uiso   1.00
Gd20   Gd    0.05271   0.54019   0.95480   0.00000  Uiso   1.00
Gd21   Gd    0.11860   0.47226  -0.01908   0.00000  Uiso   1.00
O22    O     0.14309   0.46816   0.19290   0.00000  Uiso   1.00
O23    O     0.09109   0.51401   0.13100   0.00000  Uiso   1.00
O24    O     0.14910   0.62500  -0.01097   0.00000  Uiso   1.00
O25    O     0.20442   0.57006   0.01386   0.00000  Uiso   1.00
O26    O     0.95055   0.48937   0.95081   0.00000  Uiso   1.00
O27    O     1.00211   0.58928   0.02822   0.00000  Uiso   1.00
O28    O     0.02781   0.54399   0.74327   0.00000  Uiso   1.00
C29    C     0.94933   0.53893   0.00387   0.00000  Uiso   1.00
O30    O     0.08123   0.49958   0.80588   0.00000  Uiso   1.00
O31    O     0.96754   0.44112   0.92024   0.00000  Uiso   1.00
C32    C     0.20203   0.62285   0.00659   0.00000  Uiso   1.00
O33    O     0.02425   0.38829   0.95002   0.00000  Uiso   1.00
O34    O     0.21848   0.52316  -0.01751   0.00000  Uiso   1.00
O35    O     0.16888   0.42258   0.90977   0.00000  Uiso   1.00
C36    C     0.11387   0.49753   0.22497   0.00000  Uiso   1.00
C37    C     0.22112   0.47352   0.93793   0.00000  Uiso   1.00
C38    C     0.97145   0.38924   0.93042   0.00000  Uiso   1.00
C39    C     0.05835   0.51634   0.71114   0.00000  Uiso   1.00
Gd40   Gd    0.52128   0.96589   1.02684   0.00000  Uiso   1.00
Gd41   Gd    0.70719   0.07122   0.13134   0.00000  Uiso   1.00
O42    O     0.66921   0.06367   0.30605   0.00000  Uiso   1.00
O43    O     0.56688   0.99331   0.23497   0.00000  Uiso   1.00
O44    O     0.55470   0.07008   0.08852   0.00000  Uiso   1.00
O45    O     0.63999   0.10285   1.02134   0.00000  Uiso   1.00
O46    O     0.46656   0.85952   0.98008   0.00000  Uiso   1.00
O47    O     0.43604   0.91274   0.09026   0.00000  Uiso   1.00
O48    O     0.53830   0.96523   0.83903   0.00000  Uiso   1.00
C49    C     0.42600   0.85794   1.03738   0.00000  Uiso   1.00
O50    O     0.63820   0.02953   0.93356   0.00000  Uiso   1.00
O51    O     0.57903   0.92539   1.13962   0.00000  Uiso   1.00
C52    C     0.59973   0.11392   0.05958   0.00000  Uiso   1.00
O53    O     0.67024   0.96459   0.09032   0.00000  Uiso   1.00
O54    O     0.76068   0.17504   0.13951   0.00000  Uiso   1.00
O55    O     0.77059   0.10965   1.00761   0.00000  Uiso   1.00
C56    C     0.61611   0.02710   0.32579   0.00000  Uiso   1.00
C57    C     0.78564   0.16784   0.05217   0.00000  Uiso   1.00
C58    C     0.62676   0.92086   1.12519   0.00000  Uiso   1.00
C59    C     0.59284   0.00160   0.83123   0.00000  Uiso   1.00
C60    C     0.59098   0.51597   0.34734   0.00000  Uiso   1.00
C61    C     0.60141   0.56237   0.45289   0.00000  Uiso   1.00
C62    C     0.59218   0.54396   0.56842   0.00000  Uiso   1.00
C63    C     0.57007   0.47944   0.57850   0.00000  Uiso   1.00
C64    C     0.55686   0.43333   0.47136   0.00000  Uiso   1.00
C65    C     0.56638   0.45130   0.35607   0.00000  Uiso   1.00
O66    O     0.57570   0.64761   0.45823   0.00000  Uiso   1.00
O67    O     0.67159   0.66774   0.43762   0.00000  Uiso   1.00
N68    N     0.61541   0.62693   0.44134   0.00000  Uiso   1.00
H69    H     0.54001   0.38317   0.47715   0.00000  Uiso   1.00
H70    H     0.55062   0.41408   0.27248   0.00000  Uiso   1.00
H71    H     0.60637   0.58099   0.65180   0.00000  Uiso   1.00
C72    C     0.06949   0.51004   0.58344   0.00000  Uiso   1.00
C73    C     0.06764   0.55325   0.50263   0.00000  Uiso   1.00
C74    C     0.08298   0.54943   0.38735   0.00000  Uiso   1.00
C75    C     0.10269   0.50475   0.35165   0.00000  Uiso   1.00
C76    C     0.10500   0.46217   0.43213   0.00000  Uiso   1.00
C77    C     0.08909   0.46519   0.54688   0.00000  Uiso   1.00
O78    O     0.10588   0.66347   0.57432   0.00000  Uiso   1.00
O79    O     0.00076   0.59921   0.52531   0.00000  Uiso   1.00
N80    N     0.05777   0.60573   0.54334   0.00000  Uiso   1.00
H81    H     0.11999   0.42697   0.40763   0.00000  Uiso   1.00
H82    H     0.09256   0.43295   0.60844   0.00000  Uiso   1.00
H83    H     0.07970   0.58175   0.32537   0.00000  Uiso   1.00
C84    C     0.61032   0.02401   0.45676   0.00000  Uiso   1.00
C85    C     0.54957   0.99071   0.47769   0.00000  Uiso   1.00
C86    C     0.54594   0.98526   0.60082   0.00000  Uiso   1.00
C87    C     0.60067   0.00935   0.70427   0.00000  Uiso   1.00
C88    C     0.66017   0.03960   0.68400   0.00000  Uiso   1.00
C89    C     0.66488   0.04758   0.56113   0.00000  Uiso   1.00
O90    O     0.45275   0.90660   0.34150   0.00000  Uiso   1.00
O91    O     0.48199   1.00742   0.31238   0.00000  Uiso   1.00
N92    N     0.49098   0.96801   0.37856   0.00000  Uiso   1.00
H93    H     0.70296   0.05657   0.76218   0.00000  Uiso   1.00
H94    H     0.71186   0.07019   0.54769   0.00000  Uiso   1.00
H95    H     0.49943   0.96391   0.61608   0.00000  Uiso   1.00
C96    C     0.39762   0.48577  -0.07265   0.00000  Uiso   1.00
C97    C     0.39514   0.53102   0.01774   0.00000  Uiso   1.00
C98    C     0.33625   0.52590   1.01591   0.00000  Uiso   1.00
C99    C     0.28057   0.47722   0.92918   0.00000  Uiso   1.00
C100   C     0.28317   0.43280   0.84127   0.00000  Uiso   1.00
C101   C     0.34148   0.43652   0.84105   0.00000  Uiso   1.00
O102   O     0.45219   0.62788   1.17827   0.00000  Uiso   1.00
O103   O     0.48353   0.55211   0.18772   0.00000  Uiso   1.00
N104   N     0.44969   0.57519   0.12308   0.00000  Uiso   1.00
H105   H     0.24044   0.39589   0.77195   0.00000  Uiso   1.00
H106   H     0.34338   0.40211   0.77175   0.00000  Uiso   1.00
H107   H     0.33333   0.55660   1.08958   0.00000  Uiso   1.00
C108   C     0.91565   0.33038   0.93517   0.00000  Uiso   1.00
C109   C     0.90863   0.26871   0.89486   0.00000  Uiso   1.00
C110   C     0.86463   0.21527   0.93057   0.00000  Uiso   1.00
C111   C     0.82764   0.22248   1.00614   0.00000  Uiso   1.00
C112   C     0.83262   0.28331   0.04032   0.00000  Uiso   1.00
C113   C     0.87596   0.33645   0.00489   0.00000  Uiso   1.00
O114   O    -0.03133   0.21995   0.84069   0.00000  Uiso   1.00
O115   O     0.95732   0.29023   0.72699   0.00000  Uiso   1.00
N116   N     0.94661   0.25995   0.81960   0.00000  Uiso   1.00
H117   H     0.80448   0.29052   0.09723   0.00000  Uiso   1.00
H118   H     0.88170   0.38297   0.04008   0.00000  Uiso   1.00
H119   H     0.86112   0.16889   0.90279   0.00000  Uiso   1.00
C120   C     0.89000   0.53577   0.02207   0.00000  Uiso   1.00
C121   C     0.88597   0.58827   0.08519   0.00000  Uiso   1.00
C122   C     0.82543   0.58181   0.08097   0.00000  Uiso   1.00
C123   C     0.76991   0.52415   0.02088   0.00000  Uiso   1.00
C124   C     0.77483   0.47215   0.96350   0.00000  Uiso   1.00
C125   C     0.83411   0.47784   0.96574   0.00000  Uiso   1.00
O126   O     0.93814   0.70133   0.16130   0.00000  Uiso   1.00
O127   O     0.98834   0.64571   0.22931   0.00000  Uiso   1.00
N128   N     0.94131   0.64766   0.15030   0.00000  Uiso   1.00
H129   H     0.73270   0.42747   0.91374   0.00000  Uiso   1.00
H130   H     0.83552   0.43677   0.91934   0.00000  Uiso   1.00
H131   H     0.82224   0.62256   0.12372   0.00000  Uiso   1.00
C132   C     0.37163   0.79850   0.03954   0.00000  Uiso   1.00
C133   C     0.31599   0.79911   0.05595   0.00000  Uiso   1.00
C134   C     0.26228   0.74176   0.04624   0.00000  Uiso   1.00
C135   C     0.26165   0.68296   0.02038   0.00000  Uiso   1.00
C136   C     0.31799   0.68230   0.00687   0.00000  Uiso   1.00
C137   C     0.37304   0.74003   0.01558   0.00000  Uiso   1.00
O138   O     0.28369   0.87503   0.99602   0.00000  Uiso   1.00
O139   O     0.32467   0.88253   0.20471   0.00000  Uiso   1.00
N140   N     0.31337   0.85735   0.08543   0.00000  Uiso   1.00
H141   H     0.31857   0.63745  -0.01445   0.00000  Uiso   1.00
H142   H     0.41797   0.74096   0.00731   0.00000  Uiso   1.00
H143   H     0.22079   0.74317   0.06067   0.00000  Uiso   1.00
C144   C     0.63100   0.86120   0.14279   0.00000  Uiso   1.00
C145   C     0.58552   0.80781   0.18239   0.00000  Uiso   1.00
C146   C     0.58840   0.74908   0.16485   0.00000  Uiso   1.00
C147   C     0.63616   0.74527   1.11607   0.00000  Uiso   1.00
C148   C     0.68176   0.79888   1.08819   0.00000  Uiso   1.00
C149   C     0.67949   0.85563   1.10187   0.00000  Uiso   1.00
O150   O     0.48246   0.76648   0.22106   0.00000  Uiso   1.00
O151   O     0.55775   0.86512   0.32608   0.00000  Uiso   1.00
N152   N     0.53925   0.81401   0.23939   0.00000  Uiso   1.00
H153   H     0.71810   0.79575   1.05051   0.00000  Uiso   1.00
H154   H     0.71489   0.89472   1.07405   0.00000  Uiso   1.00
H155   H     0.55243   0.70418   0.17963   0.00000  Uiso   1.00
C156   C     0.58678   0.28584   0.02730   0.00000  Uiso   1.00
C157   C     0.64393   0.29056   0.10307   0.00000  Uiso   1.00
C158   C     0.64867   0.23369   0.11006   0.00000  Uiso   1.00
C159   C     0.59695   0.17361   0.04746   0.00000  Uiso   1.00
C160   C     0.53999   0.16973   0.97749   0.00000  Uiso   1.00
C161   C     0.53545   0.22530   0.96713   0.00000  Uiso   1.00
O162   O     0.74997   0.35678   0.22913   0.00000  Uiso   1.00
O163   O     0.67733   0.38970   0.23858   0.00000  Uiso   1.00
N164   N     0.69312   0.35027   0.18360   0.00000  Uiso   1.00
H165   H     0.49967   0.12387   0.92909   0.00000  Uiso   1.00
H166   H     0.49138   0.22063   0.90982   0.00000  Uiso   1.00
H167   H     0.69077   0.23630   0.17151   0.00000  Uiso   1.00
loop_
_geom_bond_atom_site_label_1
_geom_bond_atom_site_label_2
_geom_bond_distance
_geom_bond_site_symmetry_2
_ccdc_geom_bond_type
Gd0    O6      2.252   .     S
Gd0    O8      2.305   .     S
Gd0    O11     2.270   .     S
Gd0    O3      2.175   1_556 S
Gd0    O4      2.229   1_556 S
Gd0    O7      2.223   1_556 S
Gd1    O2      2.308   .     S
Gd1    O13     2.234   .     S
Gd1    O14     2.229   .     S
Gd1    O5      2.202   1_554 S
Gd1    O10     2.183   1_554 S
Gd1    O15     2.233   1_554 S
O2     C16     1.271   .     A
O3     C16     1.252   .     A
O3     Gd0     2.175   1_554 S
O4     C12     1.283   .     A
O4     Gd0     2.229   1_554 S
O5     Gd1     2.202   1_556 S
O5     C12     1.274   1_556 A
O6     C9      1.281   .     A
O7     Gd0     2.223   1_554 S
O7     C9      1.270   1_554 A
O8     C19     1.272   .     A
C9     O7      1.270   1_556 A
C9     C156    1.470   1_556 S
O10    C19     1.270   .     A
O10    Gd1     2.183   1_556 S
O11    C18     1.298   1_556 A
C12    C96     1.459   .     S
C12    O5      1.274   1_554 A
O13    C18     1.287   .     A
O14    C17     1.270   .     A
O15    Gd1     2.233   1_556 S
O15    C17     1.271   1_556 A
C16    C60     1.477   .     S
C17    O15     1.271   1_554 A
C17    C147    1.451   1_554 S
C18    C123    1.477   .     S
C18    O11     1.298   1_554 A
C19    C63     1.478   .     S
Gd20   O28     2.286   .     S
Gd20   O23     2.224   1_556 S
Gd20   O24     2.254   1_556 S
Gd20   O26     2.239   1_455 S
Gd20   O27     2.256   1_456 S
Gd20   O31     2.285   1_455 S
Gd21   O22     2.292   .     S
Gd21   O25     2.276   .     S
Gd21   O34     2.197   .     S
Gd21   O30     2.220   1_554 S
Gd21   O33     2.220   1_554 S
Gd21   O35     2.249   1_554 S
O22    C36     1.277   .     A
O23    C36     1.242   .     A
O23    Gd20    2.224   1_554 S
O24    C32     1.295   .     A
O24    Gd20    2.254   1_554 S
O25    C32     1.291   .     A
O26    Gd20    2.239   1_655 S
O26    C29     1.283   1_556 A
O27    C29     1.269   .     A
O27    Gd20    2.256   1_654 S
O28    C39     1.274   .     A
C29    C120    1.481   .     S
C29    O26     1.283   1_554 A
O30    C39     1.253   .     A
O30    Gd21    2.220   1_556 S
O31    C38     1.292   .     A
O31    Gd20    2.285   1_655 S
C32    C135    1.493   .     S
O33    Gd21    2.220   1_556 S
O33    C38     1.277   1_455 A
O34    C37     1.271   1_554 A
O35    C37     1.265   .     A
O35    Gd21    2.249   1_556 S
C36    C75     1.481   .     S
C37    C99     1.446   .     S
C37    O34     1.271   1_556 A
C38    C108    1.480   .     S
C38    O33     1.277   1_655 A
C39    C72     1.489   .     S
Gd40   O46     2.224   .     S
Gd40   O48     2.185   .     S
Gd40   O51     2.263   .     S
Gd40   O43     2.207   1_556 S
Gd40   O44     2.224   1_566 S
Gd40   O47     2.213   1_556 S
Gd41   O42     2.289   .     S
Gd41   O54     2.209   .     S
Gd41   O45     2.266   1_554 S
Gd41   O50     2.259   1_554 S
Gd41   O53     2.248   1_545 S
Gd41   O55     2.227   1_554 S
O42    C56     1.286   .     A
O43    Gd40    2.207   1_554 S
O43    C56     1.257   1_565 A
O44    C52     1.265   .     A
O44    Gd40    2.224   1_544 S
O45    Gd41    2.266   1_556 S
O45    C52     1.268   1_556 A
O46    C49     1.274   .     A
O47    Gd40    2.213   1_554 S
O47    C49     1.272   1_554 A
O48    C59     1.260   1_565 A
C49    O47     1.272   1_556 A
C49    C132    1.461   1_556 S
O50    C59     1.271   .     A
O50    Gd41    2.259   1_556 S
O51    C58     1.263   .     A
C52    C159    1.467   .     S
C52    O45     1.268   1_554 A
O53    Gd41    2.248   1_565 S
O53    C58     1.277   1_554 A
O54    C57     1.278   .     A
O55    Gd41    2.227   1_556 S
O55    C57     1.282   1_556 A
C56    C84     1.476   .     S
C56    O43     1.257   1_545 A
C57    O55     1.282   1_554 A
C57    C111    1.470   1_554 S
C58    O53     1.277   1_556 A
C58    C144    1.494   1_556 S
C59    C87     1.460   .     S
C59    O48     1.260   1_545 A
C60    C61     1.421   .     A
C60    C65     1.404   .     A
C61    C62     1.406   .     A
C61    N68     1.443   .     S
C62    C63     1.409   .     A
C62    H71     1.087   .     S
C63    C64     1.407   .     A
C64    C65     1.402   .     A
C64    H69     1.090   .     S
C65    H70     1.084   .     S
O66    N68     1.307   .     A
O67    N68     1.301   .     A
C72    C73     1.424   .     A
C72    C77     1.410   .     A
C73    C74     1.399   .     A
C73    N80     1.425   .     S
C74    C75     1.406   .     A
C74    H83     1.087   .     S
C75    C76     1.412   .     A
C76    C77     1.398   .     A
C76    H81     1.088   .     S
C77    H82     1.084   .     S
O78    N80     1.308   .     A
O79    N80     1.305   .     A
C84    C89     1.407   .     A
C84    C85     1.427   1_545 A
C85    C86     1.384   .     A
C85    N92     1.441   .     S
C85    C84     1.427   1_565 A
C86    H95     1.083   .     S
C86    C87     1.403   1_565 A
C87    C88     1.392   .     A
C87    C86     1.403   1_545 A
C88    C89     1.397   .     A
C88    H93     1.085   .     S
C89    H94     1.086   .     S
O90    N92     1.304   .     A
O91    N92     1.299   .     A
C96    C97     1.427   .     A
C96    C101    1.409   1_554 A
C97    N104    1.452   .     S
C97    C98     1.390   1_554 A
C98    C99     1.401   .     A
C98    H107    1.075   .     S
C98    C97     1.390   1_556 A
C99    C100    1.398   .     A
C100   C101    1.394   .     A
C100   H105    1.084   .     S
C101   H106    1.089   .     S
C101   C96     1.409   1_556 A
O102   N104    1.312   1_556 A
O103   N104    1.308   .     A
N104   O102    1.312   1_554 A
C108   C109    1.417   .     A
C108   C113    1.405   1_556 A
C109   C110    1.412   .     A
C109   N116    1.435   .     S
C110   C111    1.404   .     A
C110   H119    1.078   .     S
C111   C112    1.406   1_556 A
C111   C57     1.470   1_556 S
C112   C113    1.399   .     A
C112   H117    1.079   .     S
C112   C111    1.406   1_554 A
C113   H118    1.076   .     S
C113   C108    1.405   1_554 A
O114   N116    1.300   1_455 A
O115   N116    1.301   .     A
N116   O114    1.300   1_655 A
C120   C121    1.426   .     A
C120   C125    1.407   1_554 A
C121   C122    1.413   .     A
C121   N128    1.436   .     S
C122   C123    1.406   .     A
C122   H131    1.081   .     S
C123   C124    1.402   1_554 A
C124   C125    1.394   .     A
C124   H129    1.087   .     S
C124   C123    1.402   1_556 A
C125   H130    1.079   .     S
C125   C120    1.407   1_556 A
O126   N128    1.310   .     A
O127   N128    1.307   .     A
C132   C133    1.420   .     A
C132   C137    1.409   .     A
C132   C49     1.461   1_554 S
C133   C134    1.392   .     A
C133   N140    1.427   .     S
C134   C135    1.395   .     A
C134   H143    1.077   .     S
C135   C136    1.428   .     A
C136   C137    1.416   .     A
C136   H141    1.079   .     S
C137   H142    1.115   .     S
O138   N140    1.305   1_556 A
O139   N140    1.305   .     A
N140   O138    1.305   1_554 A
C144   C145    1.449   .     A
C144   C149    1.410   1_554 A
C144   C58     1.494   1_554 S
C145   C146    1.428   .     A
C145   N152    1.461   .     S
C146   H155    1.098   .     S
C146   C147    1.421   1_554 A
C147   C148    1.388   .     A
C147   C146    1.421   1_556 A
C147   C17     1.451   1_556 S
C148   C149    1.372   .     A
C148   H153    1.087   .     S
C149   H154    1.078   .     S
C149   C144    1.410   1_556 A
O150   N152    1.308   .     A
O151   N152    1.308   .     A
C156   C157    1.418   .     A
C156   C161    1.404   1_554 A
C156   C9      1.470   1_554 S
C157   C158    1.415   .     A
C157   N164    1.436   .     S
C158   C159    1.406   .     A
C158   H167    1.077   .     S
C159   C160    1.400   1_554 A
C160   C161    1.387   .     A
C160   H165    1.082   .     S
C160   C159    1.400   1_556 A
C161   H166    1.079   .     S
C161   C156    1.404   1_556 A
O162   N164    1.309   .     A
O163   N164    1.309   .     A
