data_kag+N139+E28
_audit_creation_date              2025-01-21
_audit_creation_method            'Materials Studio'
_symmetry_space_group_name_H-M    'P1'
_symmetry_Int_Tables_number       1
_symmetry_cell_setting            triclinic
loop_
_symmetry_equiv_pos_as_xyz
  x,y,z
_cell_length_a                    42.6371
_cell_length_b                    35.5160
_cell_length_c                    23.6534
_cell_angle_alpha                 88.8103
_cell_angle_beta                  88.7477
_cell_angle_gamma                 121.6667
loop_
_atom_site_label
_atom_site_type_symbol
_atom_site_fract_x
_atom_site_fract_y
_atom_site_fract_z
_atom_site_U_iso_or_equiv
_atom_site_adp_type
_atom_site_occupancy
C0     C     0.52609   0.50507   0.80116   0.00000  Uiso   1.00
Sm1    Sm    0.48179   0.50604   0.09205   0.00000  Uiso   1.00
Sm2    Sm    0.53246   0.50313   0.91157   0.00000  Uiso   1.00
C3     C     0.50170   0.44619   0.02876   0.00000  Uiso   1.00
C4     C     0.58617   0.49225   0.94305   0.00000  Uiso   1.00
O5     O     0.51717   0.53088   0.16679   0.00000  Uiso   1.00
O6     O     0.45949   0.47999   0.17936   0.00000  Uiso   1.00
O7     O     0.51796   0.55540   0.92348   0.00000  Uiso   1.00
O8     O     0.51749   0.54271   0.01387   0.00000  Uiso   1.00
O9     O     0.42997   0.48356   1.04664   0.00000  Uiso   1.00
O10    O     0.45296   0.54316   0.09418   0.00000  Uiso   1.00
O11    O     0.49880   0.47915   0.83501   0.00000  Uiso   1.00
O12    O     0.55660   0.53012   0.82513   0.00000  Uiso   1.00
O13    O     0.49576   0.45341   0.07919   0.00000  Uiso   1.00
O14    O     0.49552   0.46551   0.98858   0.00000  Uiso   1.00
O15    O     0.58320   0.52444  -0.04041   0.00000  Uiso   1.00
O16    O     0.56082   0.46556   0.91069   0.00000  Uiso   1.00
C17    C     0.49058   0.50515   0.20181   0.00000  Uiso   1.00
C18    C     0.51140   0.56213   0.97377   0.00000  Uiso   1.00
C19    C     0.42687   0.51557   0.06350   0.00000  Uiso   1.00
C20    C     1.02004   0.49970   0.20097   0.00000  Uiso   1.00
Sm21   Sm    0.97795   0.50142   0.91345   0.00000  Uiso   1.00
Sm22   Sm    0.02991   0.50034   0.09066   0.00000  Uiso   1.00
C23    C     0.05093   0.55771   0.97299   0.00000  Uiso   1.00
C24    C     0.09382   0.51049   0.06021   0.00000  Uiso   1.00
O25    O     0.99012   0.47651   0.83560   0.00000  Uiso   1.00
O26    O    -0.02137   0.52887   0.82776   0.00000  Uiso   1.00
O27    O     0.96979   0.44818   0.07944   0.00000  Uiso   1.00
O28    O     0.98051   0.46250   0.98876   0.00000  Uiso   1.00
O29    O     0.94552   0.52311  -0.03626   0.00000  Uiso   1.00
O30    O     0.91695   0.46521   0.91344   0.00000  Uiso   1.00
O31    O     0.01627   0.52553   0.16693   0.00000  Uiso   1.00
O32    O     1.02843   0.47386   0.17720   0.00000  Uiso   1.00
O33    O     0.03851   0.55218   0.92347   0.00000  Uiso   1.00
O34    O     0.02768   0.53833   0.01412   0.00000  Uiso   1.00
O35    O     0.06313   0.47846   1.04334   0.00000  Uiso   1.00
O36    O     0.09100   0.53738   0.09204   0.00000  Uiso   1.00
C37    C    -0.01382   0.50277   0.80266   0.00000  Uiso   1.00
C38    C     0.95736   0.44245   0.02987   0.00000  Uiso   1.00
C39    C     0.91456   0.49147   0.94700   0.00000  Uiso   1.00
C40    C     0.48544  -0.02082   0.19682   0.00000  Uiso   1.00
Sm41   Sm    0.53162   0.03666   0.90471   0.00000  Uiso   1.00
Sm42   Sm    0.47766   0.97059   0.08670   0.00000  Uiso   1.00
C43    C     0.50468   0.94881   0.97082   0.00000  Uiso   1.00
C44    C     0.41862   0.89673   0.05675   0.00000  Uiso   1.00
O45    O     0.49812   0.02169   0.82811   0.00000  Uiso   1.00
O46    O     0.55426   1.03700   0.81885   0.00000  Uiso   1.00
O47    O     0.49844   0.04325   0.07163   0.00000  Uiso   1.00
O48    O     0.49642   0.03160   0.98124   0.00000  Uiso   1.00
O49    O     0.58230   0.07303  -0.04611   0.00000  Uiso   1.00
O50    O     0.56636   0.11041   0.90133   0.00000  Uiso   1.00
O51    O     0.51139   0.98425   0.16286   0.00000  Uiso   1.00
O52    O     0.45554  -0.03018   0.17310   0.00000  Uiso   1.00
O53    O     0.51159   0.96422   0.91999   0.00000  Uiso   1.00
O54    O     0.51264   0.97603   0.00995   0.00000  Uiso   1.00
O55    O     0.42640   0.93502   1.03842   0.00000  Uiso   1.00
O56    O     0.44221   0.89691   0.08963   0.00000  Uiso   1.00
C57    C     0.52422   1.02652   0.79472   0.00000  Uiso   1.00
C58    C     0.50516   0.05875   0.02079   0.00000  Uiso   1.00
C59    C     0.58961   0.11111   0.93548   0.00000  Uiso   1.00
C60    C     0.50338   0.50397   0.38160   0.00000  Uiso   1.00
C61    C     0.53354   0.53298   0.34521   0.00000  Uiso   1.00
C62    C     0.52949   0.53321   0.28669   0.00000  Uiso   1.00
C63    C     0.49523   0.50450   0.26342   0.00000  Uiso   1.00
C64    C     0.46522   0.47521   0.29959   0.00000  Uiso   1.00
C65    C     0.46924   0.47491   0.35800   0.00000  Uiso   1.00
C66    C     0.50719   0.50427   0.44379   0.00000  Uiso   1.00
N67    N     0.47783   0.47649   0.47865   0.00000  Uiso   1.00
N68    N     0.48092   0.47705   0.53454   0.00000  Uiso   1.00
C69    C     0.51350   0.50544   0.55812   0.00000  Uiso   1.00
N70    N     0.54294   0.53317   0.52328   0.00000  Uiso   1.00
N71    N     0.53984   0.53262   0.46732   0.00000  Uiso   1.00
C72    C     0.51674   0.50593   0.62045   0.00000  Uiso   1.00
C73    C     0.55050   0.53492   0.64512   0.00000  Uiso   1.00
C74    C     0.55348   0.53480   0.70388   0.00000  Uiso   1.00
C75    C     0.52278   0.50581   0.73919   0.00000  Uiso   1.00
C76    C     0.48900   0.47711   0.71471   0.00000  Uiso   1.00
C77    C     0.48600   0.47717   0.65601   0.00000  Uiso   1.00
H78    H     0.56026   0.55569   0.36188   0.00000  Uiso   1.00
H79    H     0.55313   0.55601   0.25969   0.00000  Uiso   1.00
H80    H     0.43853   0.45257   0.28278   0.00000  Uiso   1.00
H81    H     0.44544   0.45200   0.38462   0.00000  Uiso   1.00
H82    H     0.57471   0.55760   0.61910   0.00000  Uiso   1.00
H83    H     0.57989   0.55730   0.72165   0.00000  Uiso   1.00
H84    H     0.46489   0.45439   0.74092   0.00000  Uiso   1.00
H85    H     0.45955   0.45448   0.63856   0.00000  Uiso   1.00
C86    C    -0.00544   0.50118   0.62137   0.00000  Uiso   1.00
C87    C    -0.00102   0.47160   0.65576   0.00000  Uiso   1.00
C88    C    -0.00351   0.47232   0.71469   0.00000  Uiso   1.00
C89    C    -0.01052   0.50254   0.74046   0.00000  Uiso   1.00
C90    C    -0.01511   0.53196   0.70627   0.00000  Uiso   1.00
C91    C    -0.01258   0.53131   0.64734   0.00000  Uiso   1.00
C92    C    -0.00236   0.50078   0.55887   0.00000  Uiso   1.00
N93    N    -0.00566   0.53001   0.52544   0.00000  Uiso   1.00
N94    N    -0.00246   0.52992   0.46929   0.00000  Uiso   1.00
C95    C     0.00418   0.50060   0.44421   0.00000  Uiso   1.00
N96    N     1.00739   0.47134   0.47765   0.00000  Uiso   1.00
N97    N     1.00420   0.47142   0.53375   0.00000  Uiso   1.00
C98    C     1.00801   0.50050   0.38178   0.00000  Uiso   1.00
C99    C     1.01516   0.47013   0.35655   0.00000  Uiso   1.00
C100   C     1.01890   0.46987   0.29783   0.00000  Uiso   1.00
C101   C     1.01551   0.49988   0.26295   0.00000  Uiso   1.00
C102   C     0.00835   0.53029   0.28789   0.00000  Uiso   1.00
C103   C     0.00466   0.53063   0.34676   0.00000  Uiso   1.00
H104   H     1.00441   0.44786   0.63724   0.00000  Uiso   1.00
H105   H     0.99994   0.44910   0.74008   0.00000  Uiso   1.00
H106   H    -0.02075   0.55545   0.72504   0.00000  Uiso   1.00
H107   H    -0.01624   0.55446   0.62220   0.00000  Uiso   1.00
H108   H     1.01792   0.44647   0.38212   0.00000  Uiso   1.00
H109   H     1.02451   0.44614   0.27975   0.00000  Uiso   1.00
H110   H     0.00577   0.55393   0.26192   0.00000  Uiso   1.00
H111   H    -0.00078   0.55452   0.36475   0.00000  Uiso   1.00
C112   C     0.49693  -0.00862   0.37707   0.00000  Uiso   1.00
C113   C     0.46412  -0.01758   0.35225   0.00000  Uiso   1.00
C114   C     0.46047  -0.02144   0.29372   0.00000  Uiso   1.00
C115   C     0.48952  -0.01643   0.25865   0.00000  Uiso   1.00
C116   C     0.52234  -0.00740   0.28323   0.00000  Uiso   1.00
C117   C     0.52600  -0.00356   0.34180   0.00000  Uiso   1.00
C118   C     0.50080  -0.00449   0.43925   0.00000  Uiso   1.00
N119   N     0.53261   0.00479   0.46340   0.00000  Uiso   1.00
N120   N     0.53614   0.00885   0.51914   0.00000  Uiso   1.00
C121   C     0.50799   0.00376   0.55322   0.00000  Uiso   1.00
N122   N     0.47615  -0.00564   0.52908   0.00000  Uiso   1.00
N123   N     0.47263  -0.00968   0.47336   0.00000  Uiso   1.00
C124   C     0.51202   1.00889   0.61526   0.00000  Uiso   1.00
C125   C     0.48274   1.00355   0.65023   0.00000  Uiso   1.00
C126   C     0.48667   1.00914   0.70851   0.00000  Uiso   1.00
C127   C     0.51999   1.02030   0.73315   0.00000  Uiso   1.00
C128   C     0.54920   1.02529   0.69847   0.00000  Uiso   1.00
C129   C     0.54527   1.01964   0.64016   0.00000  Uiso   1.00
H130   H     0.44120  -0.02156   0.37800   0.00000  Uiso   1.00
H131   H     0.43484  -0.02838   0.27593   0.00000  Uiso   1.00
H132   H     0.54518  -0.00340   0.25721   0.00000  Uiso   1.00
H133   H     0.55166   0.00340   0.35937   0.00000  Uiso   1.00
H134   H     0.45671   0.99512   0.63262   0.00000  Uiso   1.00
H135   H     0.46364   1.00487   0.73428   0.00000  Uiso   1.00
H136   H     0.57515   1.03366   0.71639   0.00000  Uiso   1.00
H137   H     0.56836   0.02386   0.61463   0.00000  Uiso   1.00
C138   C     0.33213   0.52458   1.03142   0.00000  Uiso   1.00
C139   C     0.36274   0.55893   0.05791   0.00000  Uiso   1.00
C140   C     0.39390   0.55650   0.06712   0.00000  Uiso   1.00
C141   C     0.39519   0.51976   1.04986   0.00000  Uiso   1.00
C142   C     0.36516   0.48603   1.02192   0.00000  Uiso   1.00
C143   C     0.33392   0.48835   1.01288   0.00000  Uiso   1.00
C144   C     0.29800   0.52559   1.02574   0.00000  Uiso   1.00
N145   N     0.26681   0.49013   1.00674   0.00000  Uiso   1.00
N146   N     0.23550   0.48992   1.00532   0.00000  Uiso   1.00
C147   C     0.23403   0.52520   1.02274   0.00000  Uiso   1.00
N148   N     0.26538   0.56093   0.04080   0.00000  Uiso   1.00
N149   N     0.29666   0.56113   0.04225   0.00000  Uiso   1.00
C150   C     0.19850   0.52344   1.02641   0.00000  Uiso   1.00
C151   C     0.19643   0.55740   0.05227   0.00000  Uiso   1.00
C152   C     0.16243   0.55350   0.06199   0.00000  Uiso   1.00
C153   C     0.12979   0.51592   1.04534   0.00000  Uiso   1.00
C154   C     0.13185   0.48288   1.01708   0.00000  Uiso   1.00
C155   C     0.16588   0.48651   1.00790   0.00000  Uiso   1.00
H156   H     0.36235   0.58730   0.07281   0.00000  Uiso   1.00
H157   H     0.41671   0.58300   0.08871   0.00000  Uiso   1.00
H158   H     0.36544   0.45729   1.00824   0.00000  Uiso   1.00
H159   H     0.31092   0.46135   0.99224   0.00000  Uiso   1.00
H160   H     0.22091   0.58640   0.06687   0.00000  Uiso   1.00
H161   H     0.16165   0.57953   0.08378   0.00000  Uiso   1.00
H162   H     0.10706   0.45361   1.00368   0.00000  Uiso   1.00
H163   H     0.16647   0.45980   0.98767   0.00000  Uiso   1.00
C164   C     0.84123   0.35631   0.00735   0.00000  Uiso   1.00
C165   C     0.86690   0.36224   0.96443   0.00000  Uiso   1.00
C166   C     0.90471   0.38991   0.97201   0.00000  Uiso   1.00
C167   C     0.91746   0.41352   0.02165   0.00000  Uiso   1.00
C168   C     0.89183   0.40716   0.06488   0.00000  Uiso   1.00
C169   C     0.85404   0.37862   0.05791   0.00000  Uiso   1.00
C170   C     0.80141   0.32567  -0.00000   0.00000  Uiso   1.00
N171   N     0.77859   0.30207   0.04500   0.00000  Uiso   1.00
N172   N     0.74321   0.27188   0.03778   0.00000  Uiso   1.00
C173   C     0.72914   0.26453  -0.01463   0.00000  Uiso   1.00
N174   N     0.75178   0.28893   0.94057   0.00000  Uiso   1.00
N175   N     0.78725   0.31878   0.94771   0.00000  Uiso   1.00
C176   C     0.69111   0.22774  -0.02361   0.00000  Uiso   1.00
C177   C     0.67229   0.22799   0.92846   0.00000  Uiso   1.00
C178   C     0.63813   0.19077   0.91663   0.00000  Uiso   1.00
C179   C     0.62280   0.15238  -0.04827   0.00000  Uiso   1.00
C180   C     0.64083   0.15275   0.00080   0.00000  Uiso   1.00
C181   C     0.67450   0.19024   0.01333   0.00000  Uiso   1.00
H182   H     0.85776   0.34493   0.92535   0.00000  Uiso   1.00
H183   H     0.92401   0.39343   0.93870   0.00000  Uiso   1.00
H184   H     0.90105   0.42437   0.10402   0.00000  Uiso   1.00
H185   H     0.83482   0.37433   0.09179   0.00000  Uiso   1.00
H186   H     0.68438   0.25656   0.89946   0.00000  Uiso   1.00
H187   H     0.62456   0.19131   0.87873   0.00000  Uiso   1.00
H188   H     0.62928   0.12364   0.02882   0.00000  Uiso   1.00
H189   H     0.68837   0.18900   0.05048   0.00000  Uiso   1.00
C190   C     0.81003   0.47727  -0.01354   0.00000  Uiso   1.00
C191   C     0.84247   0.51239   0.00825   0.00000  Uiso   1.00
C192   C     0.87652   0.51639  -0.00280   0.00000  Uiso   1.00
C193   C     0.87869   0.48555  -0.03617   0.00000  Uiso   1.00
C194   C     0.84614   0.44953  -0.05584   0.00000  Uiso   1.00
C195   C     0.81220   0.44524  -0.04435   0.00000  Uiso   1.00
C196   C     0.77465   0.47568  -0.00855   0.00000  Uiso   1.00
N197   N     0.74356   0.44124  -0.02922   0.00000  Uiso   1.00
N198   N     0.71255   0.44161  -0.03043   0.00000  Uiso   1.00
C199   C     0.71123   0.47648  -0.01106   0.00000  Uiso   1.00
N200   N     0.74210   0.51058   0.01075   0.00000  Uiso   1.00
N201   N     0.77318   0.51020   0.01196   0.00000  Uiso   1.00
C202   C     0.67769   0.47860  -0.01777   0.00000  Uiso   1.00
C203   C     0.67613   0.51480   0.00151   0.00000  Uiso   1.00
C204   C     0.64584   0.51865  -0.00979   0.00000  Uiso   1.00
C205   C     0.61668   0.48653  -0.04083   0.00000  Uiso   1.00
C206   C     0.61761   0.44964  -0.05842   0.00000  Uiso   1.00
C207   C     0.64772   0.44563  -0.04688   0.00000  Uiso   1.00
H208   H     0.84172   0.53743   0.03254   0.00000  Uiso   1.00
H209   H     0.90121   0.54427   0.01330   0.00000  Uiso   1.00
H210   H     0.84695   0.42515  -0.08153   0.00000  Uiso   1.00
H211   H     0.78785   0.41765  -0.06161   0.00000  Uiso   1.00
H212   H     0.69864   0.54068   0.02425   0.00000  Uiso   1.00
H213   H     0.64569   0.54732   0.00450   0.00000  Uiso   1.00
H214   H     0.59538   0.42423  -0.08210   0.00000  Uiso   1.00
H215   H     0.64790   0.41726  -0.06229   0.00000  Uiso   1.00
C216   C     0.31559   0.77982   1.02106   0.00000  Uiso   1.00
C217   C     0.33630   0.77946   1.06624   0.00000  Uiso   1.00
C218   C     0.37065   0.81697   0.07644   0.00000  Uiso   1.00
C219   C     0.38441   0.85574   1.04243   0.00000  Uiso   1.00
C220   C     0.36403   0.85581   0.99665   0.00000  Uiso   1.00
C221   C     0.33013   0.81802   0.98565   0.00000  Uiso   1.00
C222   C     0.27794   0.74184   1.01307   0.00000  Uiso   1.00
N223   N     0.26310   0.73380   0.96121   0.00000  Uiso   1.00
N224   N     0.22813   0.70177   0.95484   0.00000  Uiso   1.00
C225   C     0.20654   0.67693   1.00023   0.00000  Uiso   1.00
N226   N     0.22145   0.68465   1.05199   0.00000  Uiso   1.00
N227   N     0.25654   0.71632   1.05824   0.00000  Uiso   1.00
C228   C     0.16695   0.64463   0.99413   0.00000  Uiso   1.00
C229   C     0.14131   0.64057   1.03587   0.00000  Uiso   1.00
C230   C     0.10354   0.61211   0.02898   0.00000  Uiso   1.00
C231   C     0.09085   0.58604   0.98124   0.00000  Uiso   1.00
C232   C     0.11649   0.58994   0.93949   0.00000  Uiso   1.00
C233   C     0.15432   0.61919   0.94577   0.00000  Uiso   1.00
H234   H     0.32572   0.75035   0.09405   0.00000  Uiso   1.00
H235   H     0.38579   0.81617   0.11218   0.00000  Uiso   1.00
H236   H     0.37403   0.88535   0.96989   0.00000  Uiso   1.00
H237   H     0.31459   0.81930   0.95082   0.00000  Uiso   1.00
H238   H     0.15047   0.66037   0.07312   0.00000  Uiso   1.00
H239   H     0.08418   0.61044   0.06095   0.00000  Uiso   1.00
H240   H     0.10722   0.57044   0.90199   0.00000  Uiso   1.00
H241   H     0.17369   0.62186   0.91304   0.00000  Uiso   1.00
C242   C     0.47440   0.81397   0.99652   0.00000  Uiso   1.00
C243   C     0.49098   0.84431   0.03966   0.00000  Uiso   1.00
C244   C     0.49885   0.88763   0.03271   0.00000  Uiso   1.00
C245   C     0.48987   0.90136   0.98283   0.00000  Uiso   1.00
C246   C     0.47138   0.87046   0.94112   0.00000  Uiso   1.00
C247   C     0.46358   0.82714   0.94795   0.00000  Uiso   1.00
C248   C     0.47200   0.77074   0.99963   0.00000  Uiso   1.00
N249   N     0.45811   0.74238   0.95655   0.00000  Uiso   1.00
N250   N     0.45971   0.70591   0.95643   0.00000  Uiso   1.00
C251   C     0.47535   0.69627   0.99933   0.00000  Uiso   1.00
N252   N     0.48855   0.72416   0.04294   0.00000  Uiso   1.00
N253   N     0.48691   0.76059   0.04308   0.00000  Uiso   1.00
C254   C     0.48076   0.65835   0.99632   0.00000  Uiso   1.00
C255   C     0.50173   0.65242   0.03664   0.00000  Uiso   1.00
C256   C     0.51046   0.61988   0.03038   0.00000  Uiso   1.00
C257   C     0.49811   0.59230   0.98406   0.00000  Uiso   1.00
C258   C     0.47632   0.59724   0.94456   0.00000  Uiso   1.00
C259   C     0.46752   0.62976   0.95080   0.00000  Uiso   1.00
H260   H     0.49953   0.83528   0.07773   0.00000  Uiso   1.00
H261   H     0.51350   0.91096   0.06525   0.00000  Uiso   1.00
H262   H     0.46435   0.88034   0.90213   0.00000  Uiso   1.00
H263   H     0.45068   0.80469   0.91392   0.00000  Uiso   1.00
H264   H     0.51255   0.67391   0.07206   0.00000  Uiso   1.00
H265   H     0.52782   0.61711   0.06084   0.00000  Uiso   1.00
H266   H     0.46668   0.57648   0.90827   0.00000  Uiso   1.00
H267   H     0.45128   0.63332   0.91901   0.00000  Uiso   1.00
C268   C     0.53260   0.35037   0.00350   0.00000  Uiso   1.00
C269   C     0.54549   0.37813   0.04986   0.00000  Uiso   1.00
C270   C     0.53636   0.41028   0.05728   0.00000  Uiso   1.00
C271   C     0.51453   0.41559   0.01821   0.00000  Uiso   1.00
C272   C     0.50231   0.38861   0.97132   0.00000  Uiso   1.00
C273   C     0.51146   0.35657   0.96379   0.00000  Uiso   1.00
C274   C     0.53859   0.31299  -0.00132   0.00000  Uiso   1.00
N275   N     0.52608   0.28643   0.95373   0.00000  Uiso   1.00
N276   N     0.52768   0.25003   0.95204   0.00000  Uiso   1.00
C277   C     0.54190   0.23857  -0.00481   0.00000  Uiso   1.00
N278   N     0.55528   0.26573   0.03956   0.00000  Uiso   1.00
N279   N     0.55370   0.30220   0.04124   0.00000  Uiso   1.00
C280   C     0.53867   0.19487  -0.00314   0.00000  Uiso   1.00
C281   C     0.55044   0.18113   0.04375   0.00000  Uiso   1.00
C282   C     0.54145   0.13726   0.04993   0.00000  Uiso   1.00
C283   C     0.52082   0.10644   0.00919   0.00000  Uiso   1.00
C284   C     0.51096   0.12072   0.96076   0.00000  Uiso   1.00
C285   C     0.52000   0.16454   0.95446   0.00000  Uiso   1.00
H286   H     0.56188   0.37436   0.08118   0.00000  Uiso   1.00
H287   H     0.54594   0.43062   0.09394   0.00000  Uiso   1.00
H288   H     0.48497   0.39167   0.94112   0.00000  Uiso   1.00
H289   H     0.50091   0.33572   0.92774   0.00000  Uiso   1.00
H290   H     0.56509   0.20363   0.07703   0.00000  Uiso   1.00
H291   H     0.54941   0.12699   0.08764   0.00000  Uiso   1.00
H292   H     0.49474   0.09748   0.92898   0.00000  Uiso   1.00
H293   H     0.51065   0.17396   0.91767   0.00000  Uiso   1.00
loop_
_geom_bond_atom_site_label_1
_geom_bond_atom_site_label_2
_geom_bond_distance
_geom_bond_site_symmetry_2
_ccdc_geom_bond_type
C0     O11     1.283   .     A
C0     O12     1.282   .     A
C0     C75     1.477   .     S
Sm1    O5      2.228   .     S
Sm1    O6      2.222   .     S
Sm1    O8      2.265   .     S
Sm1    O10     2.226   .     S
Sm1    O13     2.264   .     S
Sm1    O9      2.227   1_554 S
Sm2    O7      2.264   .     S
Sm2    O11     2.227   .     S
Sm2    O12     2.225   .     S
Sm2    O14     2.269   .     S
Sm2    O16     2.222   .     S
Sm2    O15     2.229   1_556 S
C3     O13     1.273   .     A
C3     C271    1.474   .     S
C3     O14     1.272   1_554 A
C4     O16     1.282   .     A
C4     O15     1.282   1_556 A
C4     C205    1.475   1_556 S
O5     C17     1.283   .     A
O6     C17     1.282   .     A
O7     C18     1.272   .     A
O8     C18     1.271   1_554 A
O9     Sm1     2.227   1_556 S
O9     C19     1.282   1_556 A
O10    C19     1.282   .     A
O14    C3      1.272   1_556 A
O15    Sm2     2.229   1_554 S
O15    C4      1.282   1_554 A
C17    C63     1.476   .     S
C18    C257    1.473   .     S
C18    O8      1.271   1_556 A
C19    O9      1.282   1_554 A
C19    C141    1.476   1_554 S
C20    O32     1.282   .     A
C20    C101    1.475   .     S
C20    O31     1.283   1_655 A
Sm21   O25     2.225   .     S
Sm21   O28     2.272   .     S
Sm21   O30     2.215   .     S
Sm21   O26     2.224   1_655 S
Sm21   O29     2.237   1_556 S
Sm21   O33     2.265   1_655 S
Sm22   O31     2.227   .     S
Sm22   O34     2.269   .     S
Sm22   O36     2.219   .     S
Sm22   O27     2.267   1_455 S
Sm22   O32     2.221   1_455 S
Sm22   O35     2.233   1_554 S
C23    O33     1.272   .     A
C23    C231    1.474   .     S
C23    O34     1.271   1_556 A
C24    O36     1.280   .     A
C24    O35     1.282   1_554 A
C24    C153    1.475   1_554 S
O25    C37     1.283   1_655 A
O26    C37     1.282   .     A
O26    Sm21    2.224   1_455 S
O27    C38     1.273   .     A
O27    Sm22    2.267   1_655 S
O28    C38     1.272   1_556 A
O29    Sm21    2.237   1_554 S
O29    C39     1.283   1_554 A
O30    C39     1.279   .     A
O31    C20     1.283   1_455 A
O32    Sm22    2.221   1_655 S
O33    Sm21    2.265   1_455 S
O34    C23     1.271   1_554 A
O35    Sm22    2.233   1_556 S
O35    C24     1.282   1_556 A
C37    C89     1.476   .     S
C37    O25     1.283   1_455 A
C38    C167    1.475   .     S
C38    O28     1.272   1_554 A
C39    O29     1.283   1_556 A
C39    C193    1.475   1_556 S
C40    O52     1.282   .     A
C40    C115    1.478   .     S
C40    O51     1.283   1_545 A
Sm41   O45     2.227   .     S
Sm41   O48     2.268   .     S
Sm41   O50     2.230   .     S
Sm41   O46     2.227   1_545 S
Sm41   O49     2.221   1_556 S
Sm41   O53     2.263   1_545 S
Sm42   O51     2.229   .     S
Sm42   O54     2.263   .     S
Sm42   O56     2.230   .     S
Sm42   O47     2.262   1_565 S
Sm42   O52     2.225   1_565 S
Sm42   O55     2.224   1_554 S
C43    O53     1.273   .     A
C43    C245    1.475   .     S
C43    O54     1.270   1_556 A
C44    O56     1.283   .     A
C44    O55     1.282   1_554 A
C44    C219    1.474   1_554 S
O45    C57     1.283   1_545 A
O46    C57     1.283   .     A
O46    Sm41    2.227   1_565 S
O47    C58     1.274   .     A
O47    Sm42    2.262   1_545 S
O48    C58     1.272   1_556 A
O49    Sm41    2.221   1_554 S
O49    C59     1.282   1_554 A
O50    C59     1.283   .     A
O51    C40     1.283   1_565 A
O52    Sm42    2.225   1_545 S
O53    Sm41    2.263   1_565 S
O54    C43     1.270   1_554 A
O55    Sm42    2.224   1_556 S
O55    C44     1.282   1_556 A
C57    C127    1.478   .     S
C57    O45     1.283   1_565 A
C58    C283    1.475   .     S
C58    O48     1.272   1_554 A
C59    O49     1.282   1_556 A
C59    C179    1.473   1_556 S
C60    C61     1.407   .     A
C60    C65     1.406   .     A
C60    C66     1.483   .     S
C61    C62     1.399   .     A
C61    H78     1.083   .     S
C62    C63     1.404   .     A
C62    H79     1.083   .     S
C63    C64     1.403   .     A
C64    C65     1.396   .     A
C64    H80     1.083   .     S
C65    H81     1.083   .     S
C66    N67     1.358   .     A
C66    N71     1.359   .     A
N67    N68     1.331   .     A
N68    C69     1.358   .     A
C69    N70     1.359   .     A
C69    C72     1.483   .     S
N70    N71     1.333   .     A
C72    C73     1.406   .     A
C72    C77     1.407   .     A
C73    C74     1.398   .     A
C73    H82     1.083   .     S
C74    C75     1.405   .     A
C74    H83     1.083   .     S
C75    C76     1.403   .     A
C76    C77     1.397   .     A
C76    H84     1.083   .     S
C77    H85     1.082   .     S
C86    C87     1.407   .     A
C86    C91     1.406   .     A
C86    C92     1.482   .     S
C87    C88     1.397   .     A
C87    H104    1.083   1_455 S
C88    C89     1.403   .     A
C88    H105    1.083   1_455 S
C89    C90     1.404   .     A
C90    C91     1.397   .     A
C90    H106    1.083   .     S
C91    H107    1.083   .     S
C92    N93     1.359   .     A
C92    N97     1.358   1_455 A
N93    N94     1.332   .     A
N94    C95     1.358   .     A
C95    N96     1.358   1_455 A
C95    C98     1.482   1_455 S
N96    N97     1.331   .     A
N96    C95     1.358   1_655 A
N97    C92     1.358   1_655 A
C98    C99     1.406   .     A
C98    C95     1.482   1_655 S
C98    C103    1.407   1_655 A
C99    C100    1.395   .     A
C99    H108    1.083   .     S
C100   C101    1.403   .     A
C100   H109    1.083   .     S
C101   C102    1.404   1_655 A
C102   C103    1.399   .     A
C102   H110    1.083   .     S
C102   C101    1.404   1_455 A
C103   H111    1.083   .     S
C103   C98     1.407   1_455 A
H104   C87     1.083   1_655 S
H105   C88     1.083   1_655 S
C112   C113    1.407   .     A
C112   C117    1.407   .     A
C112   C118    1.485   .     S
C113   C114    1.398   .     A
C113   H130    1.082   .     S
C114   C115    1.404   .     A
C114   H131    1.083   .     S
C115   C116    1.404   .     A
C116   C117    1.399   .     A
C116   H132    1.083   .     S
C117   H133    1.082   .     S
C118   N119    1.359   .     A
C118   N123    1.359   .     A
N119   N120    1.333   .     A
N120   C121    1.359   .     A
C121   N122    1.359   .     A
C121   C124    1.485   1_545 S
N122   N123    1.332   .     A
C124   C125    1.407   .     A
C124   C129    1.407   .     A
C124   C121    1.485   1_565 S
C125   C126    1.398   .     A
C125   H134    1.082   .     S
C126   C127    1.403   .     A
C126   H135    1.083   .     S
C127   C128    1.404   .     A
C128   C129    1.399   .     A
C128   H136    1.083   .     S
C129   H137    1.083   1_565 S
H137   C129    1.083   1_545 S
C138   C143    1.406   .     A
C138   C144    1.484   .     S
C138   C139    1.407   1_556 A
C139   C140    1.397   .     A
C139   H156    1.082   .     S
C139   C138    1.407   1_554 A
C140   H157    1.083   .     S
C140   C141    1.403   1_554 A
C141   C142    1.404   .     A
C141   C140    1.403   1_556 A
C141   C19     1.476   1_556 S
C142   C143    1.398   .     A
C142   H158    1.083   .     S
C143   H159    1.083   .     S
C144   N145    1.359   .     A
C144   N149    1.358   1_556 A
N145   N146    1.333   .     A
N146   C147    1.359   .     A
C147   C150    1.483   .     S
C147   N148    1.359   1_556 A
N148   N149    1.331   .     A
N148   C147    1.359   1_554 A
N149   C144    1.358   1_554 A
C150   C155    1.408   .     A
C150   C151    1.406   1_556 A
C151   C152    1.395   .     A
C151   H160    1.083   .     S
C151   C150    1.406   1_554 A
C152   H161    1.083   .     S
C152   C153    1.403   1_554 A
C153   C154    1.403   .     A
C153   C152    1.403   1_556 A
C153   C24     1.475   1_556 S
C154   C155    1.400   .     A
C154   H162    1.083   .     S
C155   H163    1.083   .     S
C164   C169    1.404   .     A
C164   C170    1.476   .     S
C164   C165    1.405   1_554 A
C165   C166    1.398   .     A
C165   H182    1.083   .     S
C165   C164    1.405   1_556 A
C166   H183    1.083   .     S
C166   C167    1.403   1_556 A
C167   C168    1.404   .     A
C167   C166    1.403   1_554 A
C168   C169    1.398   .     A
C168   H184    1.083   .     S
C169   H185    1.083   .     S
C170   N171    1.358   .     A
C170   N175    1.358   1_554 A
N171   N172    1.332   .     A
N172   C173    1.359   .     A
C173   C176    1.478   .     S
C173   N174    1.358   1_554 A
N174   N175    1.332   .     A
N174   C173    1.358   1_556 A
N175   C170    1.358   1_556 A
C176   C181    1.405   .     A
C176   C177    1.406   1_554 A
C177   C178    1.399   .     A
C177   H186    1.083   .     S
C177   C176    1.406   1_556 A
C178   H187    1.083   .     S
C178   C179    1.403   1_556 A
C179   C180    1.403   .     A
C179   C178    1.403   1_554 A
C179   C59     1.473   1_554 S
C180   C181    1.396   .     A
C180   H188    1.083   .     S
C181   H189    1.083   .     S
C190   C191    1.407   .     A
C190   C195    1.405   .     A
C190   C196    1.482   .     S
C191   C192    1.400   .     A
C191   H208    1.083   .     S
C192   C193    1.404   .     A
C192   H209    1.083   .     S
C193   C194    1.403   .     A
C193   C39     1.475   1_554 S
C194   C195    1.393   .     A
C194   H210    1.083   .     S
C195   H211    1.083   .     S
C196   N197    1.358   .     A
C196   N201    1.359   .     A
N197   N198    1.330   .     A
N198   C199    1.357   .     A
C199   N200    1.359   .     A
C199   C202    1.482   .     S
N200   N201    1.333   .     A
C202   C203    1.406   .     A
C202   C207    1.407   .     A
C203   C204    1.399   .     A
C203   H212    1.083   .     S
C204   C205    1.404   .     A
C204   H213    1.083   .     S
C205   C206    1.403   .     A
C205   C4      1.475   1_554 S
C206   C207    1.396   .     A
C206   H214    1.083   .     S
C207   H215    1.083   .     S
C216   C217    1.405   .     A
C216   C221    1.405   .     A
C216   C222    1.477   .     S
C217   C218    1.399   1_556 A
C217   H234    1.084   1_556 S
C218   H235    1.084   .     S
C218   C217    1.399   1_554 A
C218   C219    1.405   1_554 A
C219   C220    1.404   .     A
C219   C218    1.405   1_556 A
C219   C44     1.474   1_556 S
C220   C221    1.397   .     A
C220   H236    1.083   .     S
C221   H237    1.083   .     S
C222   N223    1.358   .     A
C222   N227    1.358   .     A
N223   N224    1.333   .     A
N224   C225    1.357   .     A
C225   N226    1.358   .     A
C225   C228    1.473   .     S
N226   N227    1.332   .     A
C228   C229    1.405   .     A
C228   C233    1.405   .     A
C229   C230    1.397   1_556 A
C229   H238    1.084   1_556 S
C230   H239    1.085   .     S
C230   C229    1.397   1_554 A
C230   C231    1.403   1_554 A
C231   C232    1.406   .     A
C231   C230    1.403   1_556 A
C232   C233    1.400   .     A
C232   H240    1.084   .     S
C233   H241    1.085   .     S
H234   C217    1.084   1_554 S
H238   C229    1.084   1_554 S
C242   C247    1.407   .     A
C242   C248    1.484   .     S
C242   C243    1.407   1_556 A
C243   C244    1.397   .     A
C243   H260    1.082   .     S
C243   C242    1.407   1_554 A
C244   H261    1.083   .     S
C244   C245    1.403   1_554 A
C245   C246    1.404   .     A
C245   C244    1.403   1_556 A
C246   C247    1.398   .     A
C246   H262    1.083   .     S
C247   H263    1.083   .     S
C248   N249    1.359   .     A
C248   N253    1.358   1_556 A
N249   N250    1.333   .     A
N250   C251    1.359   .     A
C251   C254    1.484   .     S
C251   N252    1.358   1_556 A
N252   N253    1.332   .     A
N252   C251    1.358   1_554 A
N253   C248    1.358   1_554 A
C254   C259    1.407   .     A
C254   C255    1.407   1_556 A
C255   C256    1.397   .     A
C255   H264    1.082   .     S
C255   C254    1.407   1_554 A
C256   H265    1.083   .     S
C256   C257    1.402   1_554 A
C257   C258    1.403   .     A
C257   C256    1.402   1_556 A
C258   C259    1.398   .     A
C258   H266    1.083   .     S
C259   H267    1.083   .     S
C268   C269    1.407   .     A
C268   C274    1.484   .     S
C268   C273    1.407   1_554 A
C269   C270    1.399   .     A
C269   H286    1.083   .     S
C270   C271    1.404   .     A
C270   H287    1.083   .     S
C271   C272    1.402   1_554 A
C272   C273    1.396   .     A
C272   H288    1.083   .     S
C272   C271    1.402   1_556 A
C273   H289    1.082   .     S
C273   C268    1.407   1_556 A
C274   N279    1.359   .     A
C274   N275    1.358   1_554 A
N275   N276    1.331   .     A
N275   C274    1.358   1_556 A
N276   C277    1.358   1_556 A
C277   N278    1.359   .     A
C277   C280    1.484   .     S
C277   N276    1.358   1_554 A
N278   N279    1.333   .     A
C280   C281    1.407   .     A
C280   C285    1.407   1_554 A
C281   C282    1.399   .     A
C281   H290    1.083   .     S
C282   C283    1.404   .     A
C282   H291    1.083   .     S
C283   C284    1.402   1_554 A
C284   C285    1.397   .     A
C284   H292    1.083   .     S
C284   C283    1.402   1_556 A
C285   H293    1.082   .     S
C285   C280    1.407   1_556 A
