data_kag+N205+E225
_audit_creation_date              2025-01-21
_audit_creation_method            'Materials Studio'
_symmetry_space_group_name_H-M    'P1'
_symmetry_Int_Tables_number       1
_symmetry_cell_setting            triclinic
loop_
_symmetry_equiv_pos_as_xyz
  x,y,z
_cell_length_a                    43.6452
_cell_length_b                    42.6320
_cell_length_c                    18.0213
_cell_angle_alpha                 96.7982
_cell_angle_beta                  100.6592
_cell_angle_gamma                 117.4592
loop_
_atom_site_label
_atom_site_type_symbol
_atom_site_fract_x
_atom_site_fract_y
_atom_site_fract_z
_atom_site_U_iso_or_equiv
_atom_site_adp_type
_atom_site_occupancy
Y0     Y     0.54929   0.50685   0.00049   0.00000  Uiso   1.00
Y1     Y     0.45910   0.50743   1.01858   0.00000  Uiso   1.00
C2     C     0.49422   0.58092   0.06293   0.00000  Uiso   1.00
C3     C     0.51415   0.49816   0.13225   0.00000  Uiso   1.00
C4     C     0.62029   0.53690   1.01284   0.00000  Uiso   1.00
C5     C     0.51430   0.43332   0.95405   0.00000  Uiso   1.00
C6     C     0.49423   0.51363   0.88504   0.00000  Uiso   1.00
C7     C     0.38832   0.47725   0.00874   0.00000  Uiso   1.00
O8     O     0.49324   0.56069   1.10907   0.00000  Uiso   1.00
O9     O     0.47755   0.56311  -0.00602   0.00000  Uiso   1.00
O10    O     0.53919   0.52275   0.11203   0.00000  Uiso   1.00
O11    O     0.48298   0.47931   0.08548   0.00000  Uiso   1.00
O12    O     0.59692   0.52845   0.94998   0.00000  Uiso   1.00
O13    O     0.60698   0.53083   0.06925   0.00000  Uiso   1.00
O14    O     0.51623   0.45395  -0.09163   0.00000  Uiso   1.00
O15    O     0.53000   0.45074   1.02351   0.00000  Uiso   1.00
O16    O     0.46771   0.49119   0.90537   0.00000  Uiso   1.00
O17    O     0.52415   0.53430   0.93510   0.00000  Uiso   1.00
O18    O     0.41231   0.48792   0.07164   0.00000  Uiso   1.00
O19    O     0.40096   0.48178   0.95116   0.00000  Uiso   1.00
Y20    Y     0.06347   0.54996   0.00441   0.00000  Uiso   1.00
Y21    Y     0.94607   0.45833   1.00957   0.00000  Uiso   1.00
C22    C     0.91224   0.49389   1.05258   0.00000  Uiso   1.00
C23    C     0.02409   0.51130   0.11982   0.00000  Uiso   1.00
C24    C     0.10158   0.62002   0.99704   0.00000  Uiso   1.00
C25    C     0.09382   0.51018  -0.03560   0.00000  Uiso   1.00
C26    C    -0.01539   0.49980   0.89509   0.00000  Uiso   1.00
C27    C     0.91007   0.38639   0.00341   0.00000  Uiso   1.00
O28    O     0.90675   0.47849   0.98355   0.00000  Uiso   1.00
O29    O     0.93587   0.49144   0.09979   0.00000  Uiso   1.00
O30    O     0.05130   0.54073   0.11905   0.00000  Uiso   1.00
O31    O     1.00631   0.48730   0.05635   0.00000  Uiso   1.00
O32    O     0.07680   0.59527   0.94126   0.00000  Uiso   1.00
O33    O     0.10558   0.60879   0.05785   0.00000  Uiso   1.00
O34    O     0.07033   0.51262  -0.08335   0.00000  Uiso   1.00
O35    O     0.10089   0.52774   1.03237   0.00000  Uiso   1.00
O36    O     0.95745   0.47034   0.89576   0.00000  Uiso   1.00
O37    O     0.00327   0.52321   0.95902   0.00000  Uiso   1.00
O38    O     0.93115   0.41011   0.06460   0.00000  Uiso   1.00
O39    O     0.90861   0.39984   0.94514   0.00000  Uiso   1.00
Y40    Y     0.52275   0.07012  -0.00778   0.00000  Uiso   1.00
Y41    Y     0.48789   0.94526   1.01028   0.00000  Uiso   1.00
C42    C     0.42178   0.91662   1.03259   0.00000  Uiso   1.00
C43    C     0.52088   0.02463   0.11686   0.00000  Uiso   1.00
C44    C     0.48988   0.11039   0.98010   0.00000  Uiso   1.00
C45    C     0.58737   0.10011  -0.03797   0.00000  Uiso   1.00
C46    C     0.49092  -0.00920   0.88613   0.00000  Uiso   1.00
C47    C     0.51819   0.90273   0.02300   0.00000  Uiso   1.00
O48    O     0.42765   0.91392   0.96691   0.00000  Uiso   1.00
O49    O     0.45026   0.93481   0.08716   0.00000  Uiso   1.00
O50    O     0.52395   0.05515   0.10888   0.00000  Uiso   1.00
O51    O     0.52361   1.00546   0.06144   0.00000  Uiso   1.00
O52    O     0.48533   0.08626   0.92473   0.00000  Uiso   1.00
O53    O     0.51102   0.11324   0.04179   0.00000  Uiso   1.00
O54    O     0.58315   0.10479   0.02900   0.00000  Uiso   1.00
O55    O     0.55817   0.07925   0.91096   0.00000  Uiso   1.00
O56    O     0.48833   0.96048   0.89414   0.00000  Uiso   1.00
O57    O     0.48814   0.00976   0.94191   0.00000  Uiso   1.00
O58    O     0.52261   0.92660   0.07880   0.00000  Uiso   1.00
O59    O     0.49841   0.90120   0.96054   0.00000  Uiso   1.00
C60    C     0.52082   0.49200   0.21073   0.00000  Uiso   1.00
C61    C     0.49283   0.46526   0.23346   0.00000  Uiso   1.00
C62    C     0.49757   0.46265   0.31049   0.00000  Uiso   1.00
C63    C     0.53029   0.48693   0.36584   0.00000  Uiso   1.00
C64    C     0.55923   0.51133   0.34217   0.00000  Uiso   1.00
C65    C     0.55456   0.51401   0.26491   0.00000  Uiso   1.00
C66    C     0.50825   0.49661   0.46886   0.00000  Uiso   1.00
H67    H     0.54717   0.55277   0.81962   0.00000  Uiso   1.00
H68    H     0.54192   0.55012   0.68133   0.00000  Uiso   1.00
H69    H     0.42859   0.47494   0.62680   0.00000  Uiso   1.00
H70    H     0.43326   0.47761   0.76546   0.00000  Uiso   1.00
H71    H     0.52588   0.49477   0.58288   0.00000  Uiso   1.00
O72    O     0.48187   0.50668   0.56483   0.00000  Uiso   1.00
O73    O     0.53347   0.48912   0.44498   0.00000  Uiso   1.00
C74    C     0.49078   0.51450   0.80280   0.00000  Uiso   1.00
C75    C     0.52110   0.53564   0.77828   0.00000  Uiso   1.00
C76    C     0.51822   0.53409   0.69956   0.00000  Uiso   1.00
C77    C     0.48502   0.51110   0.64435   0.00000  Uiso   1.00
C78    C     0.45439   0.49200   0.66898   0.00000  Uiso   1.00
C79    C     0.45720   0.49341   0.74776   0.00000  Uiso   1.00
C80    C     0.50729   0.49919   0.54217   0.00000  Uiso   1.00
H81    H     0.47525   0.44310   0.32813   0.00000  Uiso   1.00
H82    H     0.58467   0.52973   0.38453   0.00000  Uiso   1.00
H83    H     0.46681   0.44738   0.19253   0.00000  Uiso   1.00
H84    H     0.48957   0.50114   0.42861   0.00000  Uiso   1.00
H85    H     0.57684   0.53427   0.24838   0.00000  Uiso   1.00
C86    C     0.99341   0.50660   0.82118   0.00000  Uiso   1.00
C87    C     0.98275   0.47759   0.75829   0.00000  Uiso   1.00
C88    C     0.98699   0.48401   0.68538   0.00000  Uiso   1.00
C89    C     0.00232   0.51983   0.67427   0.00000  Uiso   1.00
C90    C     0.01291   0.54852   0.73742   0.00000  Uiso   1.00
C91    C     0.00830   0.54204   0.80984   0.00000  Uiso   1.00
C92    C     1.00325   0.50328   0.54159   0.00000  Uiso   1.00
H93    H     0.03950   0.56205   0.24994   0.00000  Uiso   1.00
H94    H     0.03040   0.55125   0.37602   0.00000  Uiso   1.00
H95    H     0.97840   0.43557   0.28202   0.00000  Uiso   1.00
H96    H     0.99019   0.44685   0.15764   0.00000  Uiso   1.00
H97    H    -0.00259   0.53185   0.45845   0.00000  Uiso   1.00
O98    O     0.99899   0.48337   0.41028   0.00000  Uiso   1.00
O99    O     0.00439   0.52841   0.60146   0.00000  Uiso   1.00
C100   C     0.01399   0.50509   0.19286   0.00000  Uiso   1.00
C101   C     0.02522   0.53431   0.25580   0.00000  Uiso   1.00
C102   C     0.01955   0.52798   0.32800   0.00000  Uiso   1.00
C103   C     1.00213   0.49208   0.33805   0.00000  Uiso   1.00
C104   C     0.99076   0.46321   0.27479   0.00000  Uiso   1.00
C105   C     0.99680   0.46959   0.20328   0.00000  Uiso   1.00
C106   C     0.00023   0.50871   0.46973   0.00000  Uiso   1.00
H107   H     0.97679   0.46069   0.63794   0.00000  Uiso   1.00
H108   H     0.02371   0.57605   0.72962   0.00000  Uiso   1.00
H109   H     0.97009   0.44984   0.76488   0.00000  Uiso   1.00
H110   H     1.00617   0.48015   0.55237   0.00000  Uiso   1.00
H111   H     0.01442   0.56453   0.85576   0.00000  Uiso   1.00
C112   C     0.51365   0.01242   0.18869   0.00000  Uiso   1.00
C113   C     0.49764   0.02635   0.23380   0.00000  Uiso   1.00
C114   C     0.49392   0.01776   0.30550   0.00000  Uiso   1.00
C115   C     0.50673  -0.00456   0.33426   0.00000  Uiso   1.00
C116   C     0.52150   0.98057   0.28791   0.00000  Uiso   1.00
C117   C     0.52536   0.98931   0.21640   0.00000  Uiso   1.00
C118   C     0.50786   0.01232   0.46757   0.00000  Uiso   1.00
H119   H     0.52333   0.97165   0.78811   0.00000  Uiso   1.00
H120   H     0.53041   0.98778   0.66422   0.00000  Uiso   1.00
H121   H     0.47972   0.05258   0.69516   0.00000  Uiso   1.00
H122   H     0.47196   0.03577   0.81891   0.00000  Uiso   1.00
H123   H     0.49455   0.97609   0.54038   0.00000  Uiso   1.00
O124   O     0.50745   0.03042   0.59736   0.00000  Uiso   1.00
O125   O     0.50358   0.98575   0.40581   0.00000  Uiso   1.00
C126   C     0.49763   0.00302   0.81403   0.00000  Uiso   1.00
C127   C     0.51367   0.98934   0.76848   0.00000  Uiso   1.00
C128   C     0.51730   0.99819   0.69697   0.00000  Uiso   1.00
C129   C     0.50434   0.02049   0.66872   0.00000  Uiso   1.00
C130   C     0.48936   0.03496   0.71531   0.00000  Uiso   1.00
C131   C     0.48552   0.02592   0.78660   0.00000  Uiso   1.00
C132   C     0.50298   0.00387   0.53532   0.00000  Uiso   1.00
H133   H     0.48092   0.02841   0.33806   0.00000  Uiso   1.00
H134   H     0.53105   0.96295   0.30846   0.00000  Uiso   1.00
H135   H     0.48813   0.04409   0.21377   0.00000  Uiso   1.00
H136   H     0.51622   0.04008   0.46246   0.00000  Uiso   1.00
H137   H     0.53877   0.97918   0.18425   0.00000  Uiso   1.00
C138   C     0.34978   0.46188   0.00323   0.00000  Uiso   1.00
C139   C     0.32449   0.44765   0.93026   0.00000  Uiso   1.00
C140   C     0.28813   0.43476   0.92474   0.00000  Uiso   1.00
C141   C     0.27659   0.43678  -0.00767   0.00000  Uiso   1.00
C142   C     0.30172   0.44969   0.06495   0.00000  Uiso   1.00
C143   C     0.33805   0.46230   0.07053   0.00000  Uiso   1.00
C144   C     0.22177   0.43453  -0.06767   0.00000  Uiso   1.00
H145   H     0.14453   0.50319   0.06153   0.00000  Uiso   1.00
H146   H     0.17898   0.47502   0.02804   0.00000  Uiso   1.00
H147   H     0.11989   0.44396   0.78702   0.00000  Uiso   1.00
H148   H     0.08536   0.47296   0.82069   0.00000  Uiso   1.00
H149   H     0.17921   0.42144  -0.01713   0.00000  Uiso   1.00
O150   O     0.17268   0.44258   0.88054   0.00000  Uiso   1.00
O151   O     0.24065   0.42573  -0.00953   0.00000  Uiso   1.00
C152   C     0.11214   0.49006  -0.05625   0.00000  Uiso   1.00
C153   C     0.13840   0.48977   0.00151   0.00000  Uiso   1.00
C154   C     0.15792   0.47322  -0.01771   0.00000  Uiso   1.00
C155   C     0.15127   0.45616  -0.09547   0.00000  Uiso   1.00
C156   C     0.12485   0.45629   0.84718   0.00000  Uiso   1.00
C157   C     0.10526   0.47287   0.86643   0.00000  Uiso   1.00
C158   C     0.19033   0.43154  -0.06406   0.00000  Uiso   1.00
H159   H     0.26923   0.42325   0.86775   0.00000  Uiso   1.00
H160   H     0.29320   0.45087   0.11742   0.00000  Uiso   1.00
H161   H     0.33285   0.44664   0.87748   0.00000  Uiso   1.00
H162   H     0.23317   0.44634   0.88718   0.00000  Uiso   1.00
H163   H     0.35701   0.47303   0.12749   0.00000  Uiso   1.00
C164   C     0.88809   0.34744   0.00074   0.00000  Uiso   1.00
C165   C     0.86775   0.32236   0.92916   0.00000  Uiso   1.00
C166   C     0.84387   0.28615   0.92655   0.00000  Uiso   1.00
C167   C     0.83916   0.27462  -0.00419   0.00000  Uiso   1.00
C168   C     0.86111   0.29920   0.06695   0.00000  Uiso   1.00
C169   C     0.88533   0.33536   0.06965   0.00000  Uiso   1.00
C170   C     0.78044   0.22345   0.94031   0.00000  Uiso   1.00
H171   H     0.65261   0.14657   0.06413   0.00000  Uiso   1.00
H172   H     0.70958   0.18093   0.03443   0.00000  Uiso   1.00
H173   H     0.65853   0.12907   0.79124   0.00000  Uiso   1.00
H174   H     0.60094   0.09512   0.82081   0.00000  Uiso   1.00
H175   H     0.75640   0.17933  -0.00937   0.00000  Uiso   1.00
O176   O     0.71986   0.17788   0.88834   0.00000  Uiso   1.00
O177   O     0.81355   0.23928  -0.00312   0.00000  Uiso   1.00
C178   C     0.62247   0.11801  -0.05515   0.00000  Uiso   1.00
C179   C     0.65371   0.14195   0.00454   0.00000  Uiso   1.00
C180   C     0.68649   0.16127  -0.01249   0.00000  Uiso   1.00
C181   C     0.68868   0.15648  -0.08977   0.00000  Uiso   1.00
C182   C     0.65750   0.13233   0.85108   0.00000  Uiso   1.00
C183   C     0.62470   0.11309   0.86805   0.00000  Uiso   1.00
C184   C     0.75294   0.19254  -0.05581   0.00000  Uiso   1.00
H185   H     0.82900   0.26740   0.87045   0.00000  Uiso   1.00
H186   H     0.85848   0.29054   0.12063   0.00000  Uiso   1.00
H187   H     0.86993   0.33088   0.87518   0.00000  Uiso   1.00
H188   H     0.77561   0.23689   0.89557   0.00000  Uiso   1.00
H189   H     0.90098   0.35410   0.12566   0.00000  Uiso   1.00
C190   C     0.89239   0.51199   1.07496   0.00000  Uiso   1.00
C191   C     0.86539   0.51170   1.01821   0.00000  Uiso   1.00
C192   C     0.84501   0.52690   1.03899   0.00000  Uiso   1.00
C193   C     0.85159   0.54328   1.11721   0.00000  Uiso   1.00
C194   C     0.87853   0.54349   0.17369   0.00000  Uiso   1.00
C195   C     0.89898   0.52823   0.15290   0.00000  Uiso   1.00
C196   C     0.81427   0.56974   1.08842   0.00000  Uiso   1.00
H197   H     0.67479   0.56356   0.14517   0.00000  Uiso   1.00
H198   H     0.73788   0.58302   0.15630   0.00000  Uiso   1.00
H199   H     0.71550   0.55923   0.90676   0.00000  Uiso   1.00
H200   H     0.65246   0.54168   0.89540   0.00000  Uiso   1.00
H201   H     0.77091   0.55645   0.13526   0.00000  Uiso   1.00
O202   O     0.76659   0.57954   1.03442   0.00000  Uiso   1.00
O203   O     0.82989   0.55626   0.14188   0.00000  Uiso   1.00
C204   C     0.65879   0.55093   1.01937   0.00000  Uiso   1.00
C205   C     0.68342   0.56279   0.09271   0.00000  Uiso   1.00
C206   C     0.71942   0.57330   0.09902   0.00000  Uiso   1.00
C207   C     0.73113   0.57100   1.03182   0.00000  Uiso   1.00
C208   C     0.70681   0.56064   0.95894   0.00000  Uiso   1.00
C209   C     0.67092   0.55066   0.95260   0.00000  Uiso   1.00
C210   C     0.78346   0.56851   0.09157   0.00000  Uiso   1.00
H211   H     0.82340   0.52472   0.99411   0.00000  Uiso   1.00
H212   H     0.88335   0.55518   0.23423   0.00000  Uiso   1.00
H213   H     0.85935   0.49883   0.95783   0.00000  Uiso   1.00
H214   H     0.82641   0.58028   1.04293   0.00000  Uiso   1.00
H215   H     0.91945   0.52856   0.19787   0.00000  Uiso   1.00
C216   C     0.38544   0.89940   1.04373   0.00000  Uiso   1.00
C217   C     0.35542   0.88530   0.97945   0.00000  Uiso   1.00
C218   C     0.32082   0.86637   0.98803   0.00000  Uiso   1.00
C219   C     0.31561   0.85997   1.06092   0.00000  Uiso   1.00
C220   C     0.34559   0.87589   0.12577   0.00000  Uiso   1.00
C221   C     0.38030   0.89542   0.11741   0.00000  Uiso   1.00
C222   C     0.25616   0.80919   1.00991   0.00000  Uiso   1.00
H223   H     0.16028   0.67496   0.10619   0.00000  Uiso   1.00
H224   H     0.20303   0.73364   0.08905   0.00000  Uiso   1.00
H225   H     0.13840   0.70834   0.85504   0.00000  Uiso   1.00
H226   H     0.09587   0.64872   0.87143   0.00000  Uiso   1.00
H227   H     0.21668   0.79137   1.07003   0.00000  Uiso   1.00
O228   O     0.19918   0.75737   0.95393   0.00000  Uiso   1.00
O229   O     0.28145   0.83877   1.07180   0.00000  Uiso   1.00
C230   C     0.12468   0.65740   0.99031   0.00000  Uiso   1.00
C231   C     0.15478   0.68224   0.05167   0.00000  Uiso   1.00
C232   C     0.17914   0.71608   0.04197   0.00000  Uiso   1.00
C233   C     0.17348   0.72595   0.97075   0.00000  Uiso   1.00
C234   C     0.14292   0.70143   0.91046   0.00000  Uiso   1.00
C235   C     0.11869   0.66750   0.91994   0.00000  Uiso   1.00
C236   C     0.22374   0.78669   1.01664   0.00000  Uiso   1.00
H237   H     0.29834   0.85664   0.93744   0.00000  Uiso   1.00
H238   H     0.34206   0.87218   0.18261   0.00000  Uiso   1.00
H239   H     0.35868   0.88863   0.92226   0.00000  Uiso   1.00
H240   H     0.26282   0.80261   0.95717   0.00000  Uiso   1.00
H241   H     0.40308   0.90633   0.16802   0.00000  Uiso   1.00
C242   C     0.53397   0.87887   0.03016   0.00000  Uiso   1.00
C243   C     0.55121   0.87836   0.10358   0.00000  Uiso   1.00
C244   C     0.56463   0.85444   0.11069   0.00000  Uiso   1.00
C245   C     0.56058   0.83030   0.04432   0.00000  Uiso   1.00
C246   C     0.54484   0.83204   0.97099   0.00000  Uiso   1.00
C247   C     0.53134   0.85588  -0.03621   0.00000  Uiso   1.00
C248   C     0.56416   0.78542   0.10618   0.00000  Uiso   1.00
H249   H     0.49860   0.62759   0.96989   0.00000  Uiso   1.00
H250   H     0.52481   0.69315   1.00839   0.00000  Uiso   1.00
H251   H     0.55660   0.69064   0.24806   0.00000  Uiso   1.00
H252   H     0.52990   0.62427   0.20916   0.00000  Uiso   1.00
H253   H     0.57887   0.74868   1.06019   0.00000  Uiso   1.00
O254   O     0.55682   0.73468   0.15779   0.00000  Uiso   1.00
O255   O     0.57254   0.80497   0.04854   0.00000  Uiso   1.00
C256   C     0.51231   0.62092   0.08654   0.00000  Uiso   1.00
C257   C     0.51165   0.64106   1.03069   0.00000  Uiso   1.00
C258   C     0.52706   0.67877   1.05282   0.00000  Uiso   1.00
C259   C     0.54386   0.69724   0.13163   0.00000  Uiso   1.00
C260   C     0.54446   0.67701   0.18717   0.00000  Uiso   1.00
C261   C     0.52912   0.63922   0.16495   0.00000  Uiso   1.00
C262   C     0.56815   0.75624   0.10470   0.00000  Uiso   1.00
H263   H     0.57813   0.85481   0.16781   0.00000  Uiso   1.00
H264   H     0.54231   0.81420   0.91940   0.00000  Uiso   1.00
H265   H     0.55393   0.89615   0.15554   0.00000  Uiso   1.00
H266   H     0.55172   0.79161   0.14845   0.00000  Uiso   1.00
H267   H     0.51871   0.85621   0.90640   0.00000  Uiso   1.00
C268   C     0.49626   0.39332   0.92939   0.00000  Uiso   1.00
C269   C     0.49662   0.37271  -0.01553   0.00000  Uiso   1.00
C270   C     0.48147   0.33504  -0.03888   0.00000  Uiso   1.00
C271   C     0.46516   0.31707   0.88195   0.00000  Uiso   1.00
C272   C     0.46471   0.33776   0.82730   0.00000  Uiso   1.00
C273   C     0.47983   0.37549   0.85067   0.00000  Uiso   1.00
C274   C     0.44046   0.25735  -0.09407   0.00000  Uiso   1.00
H275   H     0.45134   0.11497   0.84841   0.00000  Uiso   1.00
H276   H     0.42673   0.15618   0.83712   0.00000  Uiso   1.00
H277   H     0.46550   0.19841   0.08503   0.00000  Uiso   1.00
H278   H     0.48997   0.15709   0.09697   0.00000  Uiso   1.00
H279   H     0.45485   0.22081   0.85782   0.00000  Uiso   1.00
O280   O     0.43351   0.20655  -0.04334   0.00000  Uiso   1.00
O281   O     0.45253   0.27974   0.85457   0.00000  Uiso   1.00
C282   C     0.47305   0.13337   0.97340   0.00000  Uiso   1.00
C283   C     0.45458   0.13307   0.90043   0.00000  Uiso   1.00
C284   C     0.44086   0.15681   0.89386   0.00000  Uiso   1.00
C285   C     0.44565   0.18135   0.96036   0.00000  Uiso   1.00
C286   C     0.46236   0.18020   0.03333   0.00000  Uiso   1.00
C287   C     0.47630   0.15671   0.03992   0.00000  Uiso   1.00
C288   C     0.44294   0.22719   0.90114   0.00000  Uiso   1.00
H289   H     0.48367   0.32030   0.00486   0.00000  Uiso   1.00
H290   H     0.45297   0.32457   0.76614   0.00000  Uiso   1.00
H291   H     0.50939   0.38581   0.04553   0.00000  Uiso   1.00
H292   H     0.43014   0.26482  -0.04856   0.00000  Uiso   1.00
H293   H     0.47927   0.39080   0.80708   0.00000  Uiso   1.00
loop_
_geom_bond_atom_site_label_1
_geom_bond_atom_site_label_2
_geom_bond_distance
_geom_bond_site_symmetry_2
_ccdc_geom_bond_type
Y0     O10     2.231   .     S
Y0     O13     2.257   .     S
Y0     O14     2.269   .     S
Y0     O12     2.265   1_554 S
Y0     O15     2.260   1_554 S
Y0     O17     2.235   1_554 S
Y1     O8      2.267   .     S
Y1     O16     2.230   .     S
Y1     O19     2.258   .     S
Y1     O9      2.258   1_556 S
Y1     O11     2.237   1_556 S
Y1     O18     2.263   1_556 S
C2     O9      1.258   .     A
C2     C256    1.475   .     S
C2     O8      1.259   1_554 A
C3     O10     1.268   .     A
C3     O11     1.271   .     A
C3     C60     1.470   .     S
C4     O12     1.261   .     A
C4     C204    1.476   .     S
C4     O13     1.257   1_556 A
C5     O15     1.257   .     A
C5     C268    1.476   .     S
C5     O14     1.260   1_556 A
C6     O16     1.268   .     A
C6     O17     1.269   .     A
C6     C74     1.468   .     S
C7     O18     1.260   .     A
C7     C138    1.475   .     S
C7     O19     1.257   1_554 A
O8     C2      1.259   1_556 A
O9     Y1      2.258   1_554 S
O11    Y1      2.237   1_554 S
O12    Y0      2.265   1_556 S
O13    C4      1.257   1_554 A
O14    C5      1.260   1_554 A
O15    Y0      2.260   1_556 S
O17    Y0      2.235   1_556 S
O18    Y1      2.263   1_554 S
O19    C7      1.257   1_556 A
Y20    O30     2.261   .     S
Y20    O33     2.262   .     S
Y20    O34     2.268   .     S
Y20    O32     2.257   1_554 S
Y20    O35     2.248   1_554 S
Y20    O37     2.257   1_554 S
Y21    O28     2.250   .     S
Y21    O36     2.260   .     S
Y21    O39     2.257   .     S
Y21    O29     2.267   1_556 S
Y21    O31     2.255   1_556 S
Y21    O38     2.263   1_556 S
C22    O28     1.260   .     A
C22    C190    1.477   .     S
C22    O29     1.263   1_556 A
C23    O30     1.273   .     A
C23    C100    1.479   .     S
C23    O31     1.273   1_455 A
C24    O32     1.260   .     A
C24    C230    1.477   .     S
C24    O33     1.261   1_556 A
C25    O34     1.264   .     A
C25    C152    1.476   .     S
C25    O35     1.259   1_554 A
C26    O37     1.272   .     A
C26    O36     1.272   1_455 A
C26    C86     1.478   1_455 S
C27    O38     1.260   .     A
C27    C164    1.475   .     S
C27    O39     1.260   1_554 A
O29    Y21     2.267   1_554 S
O29    C22     1.263   1_554 A
O31    Y21     2.255   1_554 S
O31    C23     1.273   1_655 A
O32    Y20     2.257   1_556 S
O33    C24     1.261   1_554 A
O35    Y20     2.248   1_556 S
O35    C25     1.259   1_556 A
O36    C26     1.272   1_655 A
O37    Y20     2.257   1_556 S
O38    Y21     2.263   1_554 S
O39    C27     1.260   1_556 A
Y40    O50     2.267   .     S
Y40    O53     2.255   .     S
Y40    O54     2.259   .     S
Y40    O52     2.262   1_554 S
Y40    O55     2.259   1_554 S
Y40    O57     2.254   1_554 S
Y41    O48     2.250   .     S
Y41    O56     2.264   .     S
Y41    O59     2.256   .     S
Y41    O49     2.265   1_556 S
Y41    O51     2.255   1_556 S
Y41    O58     2.259   1_556 S
C42    O48     1.260   .     A
C42    C216    1.474   .     S
C42    O49     1.262   1_556 A
C43    O50     1.274   .     A
C43    C112    1.485   .     S
C43    O51     1.273   1_545 A
C44    O52     1.260   .     A
C44    C282    1.474   .     S
C44    O53     1.260   1_556 A
C45    O54     1.261   .     A
C45    C178    1.476   .     S
C45    O55     1.261   1_554 A
C46    O57     1.273   .     A
C46    C126    1.485   .     S
C46    O56     1.273   1_545 A
C47    O58     1.261   .     A
C47    C242    1.473   .     S
C47    O59     1.260   1_554 A
O49    Y41     2.265   1_554 S
O49    C42     1.262   1_554 A
O51    Y41     2.255   1_554 S
O51    C43     1.273   1_565 A
O52    Y40     2.262   1_556 S
O53    C44     1.260   1_554 A
O55    Y40     2.259   1_556 S
O55    C45     1.261   1_556 A
O56    C46     1.273   1_565 A
O57    Y40     2.254   1_556 S
O58    Y41     2.259   1_554 S
O59    C47     1.260   1_556 A
C60    C61     1.404   .     A
C60    C65     1.407   .     A
C61    C62     1.391   .     A
C61    H83     1.083   .     S
C62    C63     1.404   .     A
C62    H81     1.083   .     S
C63    C64     1.397   .     A
C63    O73     1.395   .     S
C64    C65     1.396   .     A
C64    H82     1.083   .     S
C65    H85     1.083   .     S
C66    O73     1.402   .     S
C66    C80     1.323   .     D
C66    H84     1.090   .     S
H67    C75     1.084   .     S
H68    C76     1.082   .     S
H69    C78     1.083   .     S
H70    C79     1.083   .     S
H71    C80     1.089   .     S
O72    C77     1.396   .     S
O72    C80     1.401   .     S
C74    C75     1.404   .     A
C74    C79     1.406   .     A
C75    C76     1.392   .     A
C76    C77     1.406   .     A
C77    C78     1.396   .     A
C78    C79     1.394   .     A
C86    C87     1.405   .     A
C86    C91     1.401   1_655 A
C86    C26     1.478   1_655 S
C87    C88     1.401   .     A
C87    H109    1.083   .     S
C88    H107    1.080   .     S
C88    C89     1.414   1_655 A
C89    C90     1.400   .     A
C89    O99     1.411   .     S
C89    C88     1.414   1_455 A
C90    C91     1.397   .     A
C90    H108    1.083   .     S
C91    H111    1.082   .     S
C91    C86     1.401   1_455 A
C92    H110    1.085   .     S
C92    O99     1.404   1_655 S
C92    C106    1.336   1_655 D
H93    C101    1.083   .     S
H94    C102    1.081   .     S
H95    C104    1.083   .     S
H96    C105    1.080   .     S
H97    C106    1.086   .     S
O98    C103    1.409   .     S
O98    C106    1.403   1_655 S
O99    C92     1.404   1_455 S
C100   C101    1.405   .     A
C100   C105    1.400   1_455 A
C101   C102    1.403   .     A
C102   C103    1.413   1_455 A
C103   C104    1.398   .     A
C103   C102    1.413   1_655 A
C104   C105    1.395   .     A
C105   C100    1.400   1_655 A
C106   C92     1.336   1_455 D
C106   O98     1.403   1_455 S
C112   C113    1.407   .     A
C112   C117    1.403   1_545 A
C113   C114    1.402   .     A
C113   H135    1.083   .     S
C114   C115    1.409   .     A
C114   H133    1.082   .     S
C115   C116    1.402   1_545 A
C115   O125    1.411   1_545 S
C116   C117    1.401   .     A
C116   H134    1.083   .     S
C116   C115    1.402   1_565 A
C117   H137    1.079   .     S
C117   C112    1.403   1_565 A
C118   C132    1.340   .     D
C118   H136    1.088   .     S
C118   O125    1.409   1_545 S
H119   C127    1.083   .     S
H120   C128    1.082   .     S
H121   C130    1.083   .     S
H122   C131    1.079   .     S
H123   C132    1.087   1_565 S
O124   C129    1.411   .     S
O124   C132    1.409   .     S
O125   C115    1.411   1_565 S
O125   C118    1.409   1_565 S
C126   C131    1.403   .     A
C126   C127    1.407   1_545 A
C127   C128    1.401   .     A
C127   C126    1.407   1_565 A
C128   C129    1.409   1_565 A
C129   C130    1.402   .     A
C129   C128    1.409   1_545 A
C130   C131    1.402   .     A
C132   H123    1.087   1_545 S
C138   C143    1.402   .     A
C138   C139    1.404   1_554 A
C139   C140    1.398   .     A
C139   H161    1.083   .     S
C139   C138    1.404   1_556 A
C140   H159    1.082   .     S
C140   C141    1.410   1_556 A
C141   C142    1.400   .     A
C141   O151    1.407   .     S
C141   C140    1.410   1_554 A
C142   C143    1.398   .     A
C142   H160    1.082   .     S
C143   H163    1.083   .     S
C144   O151    1.406   .     S
C144   C158    1.333   .     D
C144   H162    1.086   1_554 S
H145   C153    1.083   .     S
H146   C154    1.082   .     S
H147   C156    1.083   .     S
H148   C157    1.083   .     S
H149   C158    1.087   .     S
O150   C155    1.409   1_556 S
O150   C158    1.404   1_556 S
C152   C153    1.404   .     A
C152   C157    1.403   1_554 A
C153   C154    1.396   .     A
C154   C155    1.411   .     A
C155   O150    1.409   1_554 S
C155   C156    1.402   1_554 A
C156   C157    1.400   .     A
C156   C155    1.402   1_556 A
C157   C152    1.403   1_556 A
C158   O150    1.404   1_554 S
H162   C144    1.086   1_556 S
C164   C169    1.404   .     A
C164   C165    1.404   1_554 A
C165   C166    1.397   .     A
C165   H187    1.083   .     S
C165   C164    1.404   1_556 A
C166   H185    1.081   .     S
C166   C167    1.410   1_556 A
C167   C168    1.400   .     A
C167   O177    1.408   .     S
C167   C166    1.410   1_554 A
C168   C169    1.399   .     A
C168   H186    1.082   .     S
C169   H189    1.084   .     S
C170   H188    1.086   .     S
C170   O177    1.406   1_556 S
C170   C184    1.333   1_556 D
H171   C179    1.083   .     S
H172   C180    1.082   .     S
H173   C182    1.083   .     S
H174   C183    1.083   .     S
H175   C184    1.088   .     S
O176   C181    1.407   1_556 S
O176   C184    1.403   1_556 S
O177   C170    1.406   1_554 S
C178   C179    1.404   .     A
C178   C183    1.403   1_554 A
C179   C180    1.398   .     A
C180   C181    1.411   .     A
C181   O176    1.407   1_554 S
C181   C182    1.400   1_554 A
C182   C183    1.398   .     A
C182   C181    1.400   1_556 A
C183   C178    1.403   1_556 A
C184   C170    1.333   1_554 D
C184   O176    1.403   1_554 S
C190   C191    1.404   .     A
C190   C195    1.404   1_556 A
C191   C192    1.396   .     A
C191   H213    1.083   .     S
C192   C193    1.410   .     A
C192   H211    1.082   .     S
C193   C194    1.401   1_556 A
C193   O203    1.408   1_556 S
C194   C195    1.400   .     A
C194   H212    1.083   .     S
C194   C193    1.401   1_554 A
C195   H215    1.083   .     S
C195   C190    1.404   1_554 A
C196   H214    1.088   .     S
C196   O203    1.405   1_556 S
C196   C210    1.333   1_556 D
H197   C205    1.083   .     S
H198   C206    1.082   .     S
H199   C208    1.082   .     S
H200   C209    1.083   .     S
H201   C210    1.086   .     S
O202   C207    1.407   .     S
O202   C210    1.406   1_556 S
O203   C193    1.408   1_554 S
O203   C196    1.405   1_554 S
C204   C209    1.402   .     A
C204   C205    1.405   1_556 A
C205   C206    1.398   .     A
C205   C204    1.405   1_554 A
C206   C207    1.409   1_554 A
C207   C208    1.401   .     A
C207   C206    1.409   1_556 A
C208   C209    1.398   .     A
C210   C196    1.333   1_554 D
C210   O202    1.406   1_554 S
C216   C217    1.403   .     A
C216   C221    1.404   1_556 A
C217   C218    1.395   .     A
C217   H239    1.083   .     S
C218   C219    1.410   .     A
C218   H237    1.082   .     S
C219   O229    1.409   .     S
C219   C220    1.402   1_556 A
C220   C221    1.401   .     A
C220   H238    1.083   .     S
C220   C219    1.402   1_554 A
C221   H241    1.084   .     S
C221   C216    1.404   1_554 A
C222   O229    1.407   .     S
C222   C236    1.333   .     D
C222   H240    1.086   .     S
H223   C231    1.083   .     S
H224   C232    1.082   .     S
H225   C234    1.083   .     S
H226   C235    1.084   .     S
H227   C236    1.087   .     S
O228   C233    1.407   .     S
O228   C236    1.404   .     S
C230   C235    1.404   .     A
C230   C231    1.404   1_556 A
C231   C232    1.399   .     A
C231   C230    1.404   1_554 A
C232   C233    1.411   1_554 A
C233   C234    1.401   .     A
C233   C232    1.411   1_556 A
C234   C235    1.398   .     A
C242   C243    1.404   .     A
C242   C247    1.404   .     A
C243   C244    1.398   .     A
C243   H265    1.083   .     S
C244   C245    1.408   .     A
C244   H263    1.082   .     S
C245   O255    1.404   .     S
C245   C246    1.399   1_554 A
C246   H264    1.083   .     S
C246   C245    1.399   1_556 A
C246   C247    1.397   1_556 A
C247   C246    1.397   1_554 A
C247   H267    1.083   1_554 S
C248   O255    1.404   .     S
C248   C262    1.331   .     D
C248   H266    1.087   .     S
H249   C257    1.083   .     S
H250   C258    1.082   .     S
H251   C260    1.083   .     S
H252   C261    1.083   .     S
H253   C262    1.087   1_556 S
O254   C259    1.408   .     S
O254   C262    1.403   .     S
C256   C261    1.404   .     A
C256   C257    1.403   1_554 A
C257   C258    1.395   .     A
C257   C256    1.403   1_556 A
C258   C259    1.411   1_556 A
C259   C260    1.401   .     A
C259   C258    1.411   1_554 A
C260   C261    1.399   .     A
C262   H253    1.087   1_554 S
H267   C247    1.083   1_556 S
C268   C273    1.404   .     A
C268   C269    1.404   1_556 A
C269   C270    1.397   .     A
C269   H291    1.083   .     S
C269   C268    1.404   1_554 A
C270   H289    1.082   .     S
C270   C271    1.411   1_554 A
C271   C272    1.401   .     A
C271   O281    1.409   .     S
C271   C270    1.411   1_556 A
C272   C273    1.399   .     A
C272   H290    1.083   .     S
C273   H293    1.083   .     S
C274   H292    1.088   .     S
C274   O281    1.404   1_554 S
C274   C288    1.334   1_554 D
H275   C283    1.083   .     S
H276   C284    1.082   .     S
H277   C286    1.083   .     S
H278   C287    1.083   .     S
H279   C288    1.088   .     S
O280   C285    1.403   1_554 S
O280   C288    1.404   1_554 S
O281   C274    1.404   1_556 S
C282   C283    1.405   .     A
C282   C287    1.404   1_556 A
C283   C284    1.399   .     A
C284   C285    1.408   .     A
C285   O280    1.403   1_556 S
C285   C286    1.399   1_556 A
C286   C287    1.397   .     A
C286   C285    1.399   1_554 A
C287   C282    1.404   1_554 A
C288   C274    1.334   1_556 D
C288   O280    1.404   1_556 S
