data_kag+N505+E9
_audit_creation_date              2025-01-21
_audit_creation_method            'Materials Studio'
_symmetry_space_group_name_H-M    'P1'
_symmetry_Int_Tables_number       1
_symmetry_cell_setting            triclinic
loop_
_symmetry_equiv_pos_as_xyz
  x,y,z
_cell_length_a                    39.7128
_cell_length_b                    34.8026
_cell_length_c                    21.1815
_cell_angle_alpha                 102.8210
_cell_angle_beta                  83.3637
_cell_angle_gamma                 106.0517
loop_
_atom_site_label
_atom_site_type_symbol
_atom_site_fract_x
_atom_site_fract_y
_atom_site_fract_z
_atom_site_U_iso_or_equiv
_atom_site_adp_type
_atom_site_occupancy
Yb0    Yb    0.55378   0.51831   0.93924   0.00000  Uiso   1.00
Yb1    Yb    0.45065   0.49537   0.08336   0.00000  Uiso   1.00
C2     C     0.38780   0.48029   0.06683   0.00000  Uiso   1.00
O3     O     0.51944   0.49329   0.86411   0.00000  Uiso   1.00
O4     O     0.55515   0.55484   0.87125   0.00000  Uiso   1.00
O5     O     0.51451   0.54179   0.00388   0.00000  Uiso   1.00
O6     O     0.45942   0.54164   1.02461   0.00000  Uiso   1.00
O7     O     0.59981   0.50397   0.89426   0.00000  Uiso   1.00
O8     O     0.59995   0.54728  -0.01219   0.00000  Uiso   1.00
O9     O     0.47989   0.52674   0.16416   0.00000  Uiso   1.00
O10    O     0.44815   0.46342   0.15841   0.00000  Uiso   1.00
C11    C     0.53192   0.52537   0.83929   0.00000  Uiso   1.00
O12    O     0.54478   0.46677  -0.01291   0.00000  Uiso   1.00
O13    O     0.49590   0.47723   1.03483   0.00000  Uiso   1.00
O14    O     0.40202   0.50615   0.11626   0.00000  Uiso   1.00
C15    C     0.48887   0.55486  -0.00458   0.00000  Uiso   1.00
O16    O     0.40757   0.46027   1.02810   0.00000  Uiso   1.00
C17    C     0.61698   0.52709   0.94306   0.00000  Uiso   1.00
C18    C     0.46846   0.49554   0.19140   0.00000  Uiso   1.00
C19    C     0.51739   0.45533   0.02287   0.00000  Uiso   1.00
Yb20   Yb    0.03533   0.54778   0.94370   0.00000  Uiso   1.00
Yb21   Yb    0.96871   0.44688   0.04648   0.00000  Uiso   1.00
C22    C     0.91018   0.40096   0.02224   0.00000  Uiso   1.00
O23    O     0.01964   0.50429   0.85899   0.00000  Uiso   1.00
O24    O     1.03275   0.57031   0.86104   0.00000  Uiso   1.00
O25    O     0.98124   0.54693   0.97224   0.00000  Uiso   1.00
O26    O     0.97005   0.48185   0.97343   0.00000  Uiso   1.00
O27    O     0.08995   0.56138   0.92638   0.00000  Uiso   1.00
O28    O     0.06514   0.60088   0.00214   0.00000  Uiso   1.00
O29    O     0.98500   0.49088   0.13049   0.00000  Uiso   1.00
O30    O    -0.02867   0.42501   0.12970   0.00000  Uiso   1.00
C31    C     1.02308   0.53349   0.82833   0.00000  Uiso   1.00
O32    O     0.03378   0.51187   0.01558   0.00000  Uiso   1.00
O33    O     0.02260   0.44688   0.01724   0.00000  Uiso   1.00
O34    O     0.91417   0.43448   0.06476   0.00000  Uiso   1.00
C35    C     0.95954   0.51409   0.98258   0.00000  Uiso   1.00
O36    O     0.93813   0.39364   0.98984   0.00000  Uiso   1.00
C37    C     0.09339   0.59444   0.96983   0.00000  Uiso   1.00
C38    C    -0.01870   0.46194   0.16182   0.00000  Uiso   1.00
C39    C     0.04429   0.47960   0.00634   0.00000  Uiso   1.00
Yb40   Yb    0.45315   0.96628   0.05974   0.00000  Uiso   1.00
Yb41   Yb    0.54636   0.03532   0.93848   0.00000  Uiso   1.00
C42    C     0.59396   0.09650   0.97455   0.00000  Uiso   1.00
O43    O     0.49090   0.97799   0.12817   0.00000  Uiso   1.00
O44    O     0.43484  -0.02837   0.15721   0.00000  Uiso   1.00
O45    O     0.46098   0.03078   0.06561   0.00000  Uiso   1.00
O46    O     0.51600   0.03738   0.03027   0.00000  Uiso   1.00
O47    O     0.43342   0.90285   0.04965   0.00000  Uiso   1.00
O48    O     0.40545   0.93955   1.01405   0.00000  Uiso   1.00
O49    O     0.50882   0.02417   0.87000   0.00000  Uiso   1.00
O50    O     0.56488   1.03009   0.84120   0.00000  Uiso   1.00
C51    C     0.46640  -0.02229   0.17399   0.00000  Uiso   1.00
O52    O     0.48306   0.96415   0.96748   0.00000  Uiso   1.00
O53    O     0.53806   0.97077   0.93191   0.00000  Uiso   1.00
O54    O     0.56675   0.09864   0.94900   0.00000  Uiso   1.00
C55    C     0.48990   0.05278   0.04621   0.00000  Uiso   1.00
O56    O     0.59402   0.06125  -0.01535   0.00000  Uiso   1.00
C57    C     0.40600   0.90449   0.02422   0.00000  Uiso   1.00
C58    C     0.53337   1.02423   0.82431   0.00000  Uiso   1.00
C59    C     0.50907   0.94869   0.95089   0.00000  Uiso   1.00
C60    C     0.48895   0.50486   0.38435   0.00000  Uiso   1.00
N61    N     0.50511   0.53520   0.35195   0.00000  Uiso   1.00
N62    N     0.49925   0.53166   0.28997   0.00000  Uiso   1.00
C63    C     0.47716   0.49756   0.25786   0.00000  Uiso   1.00
N64    N     0.46132   0.46696   0.28993   0.00000  Uiso   1.00
N65    N     0.46714   0.47053   0.35201   0.00000  Uiso   1.00
C66    C     0.49412   0.50970   0.45376   0.00000  Uiso   1.00
N67    N     0.47675   0.48013   0.48686   0.00000  Uiso   1.00
N68    N     0.48100   0.48470   0.54983   0.00000  Uiso   1.00
C69    C     0.50270   0.51903   0.58224   0.00000  Uiso   1.00
N70    N     0.52011   0.54864   0.54917   0.00000  Uiso   1.00
N71    N     0.51580   0.54411   0.48616   0.00000  Uiso   1.00
C72    C     0.50818   0.52301   0.65125   0.00000  Uiso   1.00
N73    N     0.53221   0.55533   0.68303   0.00000  Uiso   1.00
N74    N     0.53883   0.55709   0.74410   0.00000  Uiso   1.00
C75    C     0.52155   0.52667   0.77565   0.00000  Uiso   1.00
N76    N     0.49711   0.49478   0.74425   0.00000  Uiso   1.00
N77    N     0.49049   0.49303   0.68332   0.00000  Uiso   1.00
C78    C     1.00831   0.51171   0.63030   0.00000  Uiso   1.00
N79    N     1.01700   0.55036   0.66546   0.00000  Uiso   1.00
N80    N     1.02125   0.55715   0.72876   0.00000  Uiso   1.00
C81    C     1.01693   0.52556   0.75925   0.00000  Uiso   1.00
N82    N     1.00799   0.48685   0.72428   0.00000  Uiso   1.00
N83    N     1.00374   0.48005   0.66088   0.00000  Uiso   1.00
C84    C     1.00472   0.50451   0.56018   0.00000  Uiso   1.00
N85    N     0.99670   0.46600   0.52439   0.00000  Uiso   1.00
N86    N     0.99383   0.45964   0.46064   0.00000  Uiso   1.00
C87    C     0.99896   0.49151   0.43034   0.00000  Uiso   1.00
N88    N     1.00700   0.53002   0.46613   0.00000  Uiso   1.00
N89    N     1.00987   0.53639   0.52988   0.00000  Uiso   1.00
C90    C     0.99544   0.48424   0.36019   0.00000  Uiso   1.00
N91    N     1.00026   0.51583   0.32931   0.00000  Uiso   1.00
N92    N     0.99625   0.50891   0.26579   0.00000  Uiso   1.00
C93    C    -0.01267   0.47015   0.23101   0.00000  Uiso   1.00
N94    N    -0.01728   0.43866   0.26184   0.00000  Uiso   1.00
N95    N    -0.01327   0.44556   0.32522   0.00000  Uiso   1.00
C96    C     0.48680  -0.00750   0.36805   0.00000  Uiso   1.00
N97    N     0.45386   0.98810   0.35087   0.00000  Uiso   1.00
N98    N     0.44746   0.98365   0.28898   0.00000  Uiso   1.00
C99    C     0.47377  -0.01655   0.24204   0.00000  Uiso   1.00
N100   N     0.50674  -0.01214   0.25912   0.00000  Uiso   1.00
N101   N     0.51314  -0.00766   0.32106   0.00000  Uiso   1.00
C102   C     0.49366  -0.00310   0.43617   0.00000  Uiso   1.00
N103   N     0.52686   0.00361   0.45409   0.00000  Uiso   1.00
N104   N     0.53300   0.00720   0.51589   0.00000  Uiso   1.00
C105   C     0.50618   0.00417   0.56200   0.00000  Uiso   1.00
N106   N     0.47298   0.99754   0.54410   0.00000  Uiso   1.00
N107   N     0.46685   0.99395   0.48230   0.00000  Uiso   1.00
C108   C     0.51300   0.00850   0.63009   0.00000  Uiso   1.00
N109   N     0.48667   1.00890   0.67705   0.00000  Uiso   1.00
N110   N     0.49307   1.01369   0.73905   0.00000  Uiso   1.00
C111   C     0.52604   1.01820   0.75624   0.00000  Uiso   1.00
N112   N     0.55232   0.01762   0.70929   0.00000  Uiso   1.00
N113   N     0.54593   0.01286   0.64734   0.00000  Uiso   1.00
C114   C     0.28639   0.47629   0.02620   0.00000  Uiso   1.00
N115   N     0.30215   0.44717   0.99273   0.00000  Uiso   1.00
N116   N     0.33434   0.44762   1.00605   0.00000  Uiso   1.00
C117   C     0.35150   0.47680   0.05399   0.00000  Uiso   1.00
N118   N     0.33552   0.50548   0.08765   0.00000  Uiso   1.00
N119   N     0.30365   0.50528   0.07397   0.00000  Uiso   1.00
C120   C     0.25153   0.47745   0.01137   0.00000  Uiso   1.00
N121   N     0.24027   0.51157   0.03525   0.00000  Uiso   1.00
N122   N     0.20831   0.51289   0.02445   0.00000  Uiso   1.00
C123   C     0.18630   0.48005  -0.01043   0.00000  Uiso   1.00
N124   N     0.19757   0.44590   0.96526   0.00000  Uiso   1.00
N125   N     0.22975   0.44470   0.97560   0.00000  Uiso   1.00
C126   C     0.14994   0.48053  -0.01590   0.00000  Uiso   1.00
N127   N     0.12497   0.44526   0.96603   0.00000  Uiso   1.00
N128   N     0.09124   0.44521   0.96947   0.00000  Uiso   1.00
C129   C     0.08133   0.48050  -0.00974   0.00000  Uiso   1.00
N130   N     0.10638   0.51577   0.00735   0.00000  Uiso   1.00
N131   N     0.14006   0.51583   0.00422   0.00000  Uiso   1.00
C132   C     0.81361   0.31379   0.00589   0.00000  Uiso   1.00
N133   N     0.82137   0.34168   0.06159   0.00000  Uiso   1.00
N134   N     0.85172   0.37025   0.06568   0.00000  Uiso   1.00
C135   C     0.87568   0.37167   0.01454   0.00000  Uiso   1.00
N136   N     0.86803   0.34373   0.95874   0.00000  Uiso   1.00
N137   N     0.83734   0.31553   0.95425   0.00000  Uiso   1.00
C138   C     0.78038   0.28185   0.00274   0.00000  Uiso   1.00
N139   N     0.76382   0.26656   0.94647   0.00000  Uiso   1.00
N140   N     0.73312   0.23847   0.94474   0.00000  Uiso   1.00
C141   C     0.71818   0.22419   0.99890   0.00000  Uiso   1.00
N142   N     0.73501   0.23906   0.05488   0.00000  Uiso   1.00
N143   N     0.76538   0.26767   0.05688   0.00000  Uiso   1.00
C144   C     0.68466   0.19270   0.99651   0.00000  Uiso   1.00
N145   N     0.67779   0.16430   0.03439   0.00000  Uiso   1.00
N146   N     0.64839   0.13411   0.02894   0.00000  Uiso   1.00
C147   C     0.62445   0.13184   0.98648   0.00000  Uiso   1.00
N148   N     0.63099   0.16075   0.94971   0.00000  Uiso   1.00
N149   N     0.66064   0.19049   0.95432   0.00000  Uiso   1.00
C150   C     0.85424   0.51457   1.00486   0.00000  Uiso   1.00
N151   N     0.87936   0.54905   0.02627   0.00000  Uiso   1.00
N152   N     0.91294   0.54846   0.02264   0.00000  Uiso   1.00
C153   C     0.92252   0.51325   0.99845   0.00000  Uiso   1.00
N154   N     0.89730   0.47866   0.97815   0.00000  Uiso   1.00
N155   N     0.86377   0.47928   0.98132   0.00000  Uiso   1.00
C156   C     0.81817   0.51626   1.00017   0.00000  Uiso   1.00
N157   N     0.79598   0.48511   0.96244   0.00000  Uiso   1.00
N158   N     0.76424   0.48784   0.95302   0.00000  Uiso   1.00
C159   C     0.75348   0.52178   0.98112   0.00000  Uiso   1.00
N160   N     0.77545   0.55275   0.01964   0.00000  Uiso   1.00
N161   N     0.80736   0.55016   0.02864   0.00000  Uiso   1.00
C162   C     0.71874   0.52477   0.96934   0.00000  Uiso   1.00
N163   N     0.70469   0.55436   0.00624   0.00000  Uiso   1.00
N164   N     0.67252   0.55587  -0.00324   0.00000  Uiso   1.00
C165   C     0.65356   0.52824   0.94941   0.00000  Uiso   1.00
N166   N     0.66782   0.49903   0.91200   0.00000  Uiso   1.00
N167   N     0.69982   0.49729   0.92185   0.00000  Uiso   1.00
C168   C     0.31624   0.80706   0.00104   0.00000  Uiso   1.00
N169   N     0.32282   0.83556   0.96342   0.00000  Uiso   1.00
N170   N     0.35191   0.86617   0.96940   0.00000  Uiso   1.00
C171   C     0.37582   0.86880   0.01212   0.00000  Uiso   1.00
N172   N     0.36955   0.83985   0.04876   0.00000  Uiso   1.00
N173   N     0.34020   0.80967   0.04361   0.00000  Uiso   1.00
C174   C     0.28317   0.77491  -0.00232   0.00000  Uiso   1.00
N175   N     0.26830   0.75999   0.05131   0.00000  Uiso   1.00
N176   N     0.23803   0.73118   0.04869   0.00000  Uiso   1.00
C177   C     0.22186   0.71579   0.99204   0.00000  Uiso   1.00
N178   N     0.23678   0.73064   0.93840   0.00000  Uiso   1.00
N179   N     0.26672   0.75996   0.94129   0.00000  Uiso   1.00
C180   C     0.18905   0.68321   0.98817   0.00000  Uiso   1.00
N181   N     0.18187   0.65534   0.93228   0.00000  Uiso   1.00
N182   N     0.15183   0.62626   0.92764   0.00000  Uiso   1.00
C183   C     0.12762   0.62426   0.97839   0.00000  Uiso   1.00
N184   N     0.13474   0.65212   0.03444   0.00000  Uiso   1.00
N185   N     0.16513   0.68083   0.03947   0.00000  Uiso   1.00
C186   C     0.50380   0.82595   0.93823   0.00000  Uiso   1.00
N187   N     0.53497   0.85458  -0.05578   0.00000  Uiso   1.00
N188   N     0.53637   0.89386  -0.04975   0.00000  Uiso   1.00
C189   C     0.50662   0.90604   0.95145   0.00000  Uiso   1.00
N190   N     0.47547   0.87740   0.94501   0.00000  Uiso   1.00
N191   N     0.47403   0.83805   0.93897   0.00000  Uiso   1.00
C192   C     0.50248   0.78274   0.93165   0.00000  Uiso   1.00
N193   N     0.47146   0.75379   0.92557   0.00000  Uiso   1.00
N194   N     0.47024   0.71477   0.92249   0.00000  Uiso   1.00
C195   C     0.50001   0.70329   0.92501   0.00000  Uiso   1.00
N196   N     0.53106   0.73221  -0.06971   0.00000  Uiso   1.00
N197   N     0.53228   0.77119  -0.06668   0.00000  Uiso   1.00
C198   C     0.49814   0.66138   0.93016   0.00000  Uiso   1.00
N199   N     0.52722   0.65150  -0.05776   0.00000  Uiso   1.00
N200   N     0.52470   0.61568  -0.04234   0.00000  Uiso   1.00
C201   C     0.49307   0.58826   0.96106   0.00000  Uiso   1.00
N202   N     0.46414   0.59772   0.94714   0.00000  Uiso   1.00
N203   N     0.46664   0.63351   0.93165   0.00000  Uiso   1.00
C204   C     0.50505   0.34166   0.06761   0.00000  Uiso   1.00
N205   N     0.53736   0.36681   0.05973   0.00000  Uiso   1.00
N206   N     0.54098   0.40408   0.04951   0.00000  Uiso   1.00
C207   C     0.51248   0.41797   0.04762   0.00000  Uiso   1.00
N208   N     0.48002   0.39333   1.05733   0.00000  Uiso   1.00
N209   N     0.47636   0.35574   1.06714   0.00000  Uiso   1.00
C210   C     0.50184   0.29887   0.06952   0.00000  Uiso   1.00
N211   N     0.47015   0.27104   1.06733   0.00000  Uiso   1.00
N212   N     0.46805   0.23165   1.06317   0.00000  Uiso   1.00
C213   C     0.49757   0.21871   0.06070   0.00000  Uiso   1.00
N214   N     0.52917   0.24660   0.06347   0.00000  Uiso   1.00
N215   N     0.53126   0.28589   0.06757   0.00000  Uiso   1.00
C216   C     0.49563   0.17532   0.05453   0.00000  Uiso   1.00
N217   N     0.52528   0.16296   0.05371   0.00000  Uiso   1.00
N218   N     0.52360   0.12370   0.04919   0.00000  Uiso   1.00
C219   C     0.49232   0.09530   0.04433   0.00000  Uiso   1.00
N220   N     0.46265   0.10768   1.04547   0.00000  Uiso   1.00
N221   N     0.46427   0.14695   1.05011   0.00000  Uiso   1.00
loop_
_geom_bond_atom_site_label_1
_geom_bond_atom_site_label_2
_geom_bond_distance
_geom_bond_site_symmetry_2
_ccdc_geom_bond_type
Yb0    O3      2.093   .     S
Yb0    O4      2.109   .     S
Yb0    O7      2.095   .     S
Yb0    O5      2.165   1_556 S
Yb0    O8      2.095   1_556 S
Yb0    O12     2.177   1_556 S
Yb1    O9      2.097   .     S
Yb1    O10     2.112   .     S
Yb1    O14     2.081   .     S
Yb1    O6      2.178   1_554 S
Yb1    O13     2.144   1_554 S
Yb1    O16     2.112   1_554 S
C2     O14     1.290   .     A
C2     C117    1.465   .     S
C2     O16     1.294   1_554 A
O3     C11     1.289   .     A
O4     C11     1.294   .     A
O5     C15     1.269   .     A
O5     Yb0     2.165   1_554 S
O6     Yb1     2.178   1_556 S
O6     C15     1.274   1_556 A
O7     C17     1.293   .     A
O8     Yb0     2.095   1_554 S
O8     C17     1.292   1_554 A
O9     C18     1.290   .     A
O10    C18     1.294   .     A
C11    C75     1.468   .     S
O12    C19     1.273   .     A
O12    Yb0     2.177   1_554 S
O13    Yb1     2.144   1_556 S
O13    C19     1.264   1_556 A
C15    O6      1.274   1_554 A
C15    C201    1.466   1_554 S
O16    Yb1     2.112   1_556 S
O16    C2      1.294   1_556 A
C17    C165    1.463   .     S
C17    O8      1.292   1_556 A
C18    C63     1.470   .     S
C19    C207    1.464   .     S
C19    O13     1.264   1_554 A
Yb20   O23     2.105   .     S
Yb20   O27     2.095   .     S
Yb20   O24     2.094   1_455 S
Yb20   O25     2.157   1_455 S
Yb20   O28     2.112   1_556 S
Yb20   O32     2.160   1_556 S
Yb21   O29     2.107   .     S
Yb21   O34     2.095   .     S
Yb21   O26     2.158   1_554 S
Yb21   O30     2.093   1_655 S
Yb21   O33     2.158   1_655 S
Yb21   O36     2.110   1_554 S
C22    O34     1.289   .     A
C22    C135    1.466   .     S
C22    O36     1.292   1_554 A
O23    C31     1.292   1_455 A
O24    C31     1.290   .     A
O24    Yb20    2.094   1_655 S
O25    C35     1.272   .     A
O25    Yb20    2.157   1_655 S
O26    C35     1.271   .     A
O26    Yb21    2.158   1_556 S
O27    C37     1.289   .     A
O28    Yb20    2.112   1_554 S
O28    C37     1.293   1_554 A
O29    C38     1.292   1_655 A
O30    C38     1.290   .     A
O30    Yb21    2.093   1_455 S
C31    C81     1.464   .     S
C31    O23     1.292   1_655 A
O32    C39     1.271   .     A
O32    Yb20    2.160   1_554 S
O33    C39     1.273   .     A
O33    Yb21    2.158   1_455 S
C35    C153    1.464   .     S
O36    Yb21    2.110   1_556 S
O36    C22     1.292   1_556 A
C37    C183    1.467   .     S
C37    O28     1.293   1_556 A
C38    C93     1.464   .     S
C38    O29     1.292   1_455 A
C39    C129    1.465   .     S
Yb40   O43     2.102   .     S
Yb40   O47     2.099   .     S
Yb40   O44     2.093   1_565 S
Yb40   O45     2.156   1_565 S
Yb40   O48     2.107   1_554 S
Yb40   O52     2.164   1_554 S
Yb41   O49     2.099   .     S
Yb41   O54     2.097   .     S
Yb41   O46     2.164   1_556 S
Yb41   O50     2.092   1_545 S
Yb41   O53     2.153   1_545 S
Yb41   O56     2.108   1_556 S
C42    O54     1.290   .     A
C42    C147    1.467   .     S
C42    O56     1.292   1_556 A
O43    C51     1.292   1_565 A
O44    C51     1.290   .     A
O44    Yb40    2.093   1_545 S
O45    C55     1.272   .     A
O45    Yb40    2.156   1_545 S
O46    C55     1.273   .     A
O46    Yb41    2.164   1_554 S
O47    C57     1.290   .     A
O48    Yb40    2.107   1_556 S
O48    C57     1.292   1_556 A
O49    C58     1.292   1_545 A
O50    C58     1.291   .     A
O50    Yb41    2.092   1_565 S
C51    C99     1.463   .     S
C51    O43     1.292   1_545 A
O52    C59     1.273   .     A
O52    Yb40    2.164   1_556 S
O53    C59     1.272   .     A
O53    Yb41    2.153   1_565 S
C55    C219    1.465   .     S
O56    Yb41    2.108   1_554 S
O56    C42     1.292   1_554 A
C57    C171    1.467   .     S
C57    O48     1.292   1_554 A
C58    C111    1.462   .     S
C58    O49     1.292   1_565 A
C59    C189    1.463   .     S
C60    N61     1.357   .     A
C60    N65     1.360   .     A
C60    C66     1.474   .     S
N61    N62     1.333   .     A
N62    C63     1.358   .     A
C63    N64     1.358   .     A
N64    N65     1.334   .     A
C66    N67     1.357   .     A
C66    N71     1.359   .     A
N67    N68     1.333   .     A
N68    C69     1.358   .     A
C69    N70     1.358   .     A
C69    C72     1.473   .     S
N70    N71     1.334   .     A
C72    N73     1.360   .     A
C72    N77     1.357   .     A
N73    N74     1.334   .     A
N74    C75     1.358   .     A
C75    N76     1.357   .     A
N76    N77     1.332   .     A
C78    N79     1.357   .     A
C78    N83     1.359   .     A
C78    C84     1.467   .     S
N79    N80     1.331   .     A
N80    C81     1.357   .     A
C81    N82     1.357   .     A
N82    N83     1.333   .     A
C84    N85     1.357   .     A
C84    N89     1.358   .     A
N85    N86     1.332   .     A
N86    C87     1.358   .     A
C87    N88     1.357   .     A
C87    C90     1.467   .     S
N88    N89     1.332   .     A
C90    N91     1.359   .     A
C90    N95     1.356   1_655 A
N91    N92     1.333   .     A
N92    C93     1.358   1_655 A
C93    N94     1.357   .     A
C93    N92     1.358   1_455 A
N94    N95     1.331   .     A
N95    C90     1.356   1_455 A
C96    N101    1.358   .     A
C96    C102    1.466   .     S
C96    N97     1.357   1_545 A
N97    N98     1.331   .     A
N97    C96     1.357   1_565 A
N98    C99     1.357   1_565 A
C99    N100    1.357   .     A
C99    N98     1.357   1_545 A
N100   N101    1.332   .     A
C102   N103    1.358   .     A
C102   N107    1.358   1_545 A
N103   N104    1.331   .     A
N104   C105    1.358   .     A
C105   C108    1.465   .     S
C105   N106    1.358   1_545 A
N106   N107    1.331   .     A
N106   C105    1.358   1_565 A
N107   C102    1.358   1_565 A
C108   N113    1.358   .     A
C108   N109    1.358   1_545 A
N109   N110    1.332   .     A
N109   C108    1.358   1_565 A
N110   C111    1.357   .     A
C111   N112    1.357   1_565 A
N112   N113    1.331   .     A
N112   C111    1.357   1_545 A
C114   N119    1.355   .     A
C114   C120    1.468   .     S
C114   N115    1.360   1_554 A
N115   N116    1.336   .     A
N115   C114    1.360   1_556 A
N116   C117    1.359   1_556 A
C117   N118    1.355   .     A
C117   N116    1.359   1_554 A
N118   N119    1.329   .     A
C120   N121    1.357   .     A
C120   N125    1.358   1_554 A
N121   N122    1.330   .     A
N122   C123    1.356   .     A
C123   C126    1.467   .     S
C123   N124    1.359   1_554 A
N124   N125    1.334   .     A
N124   C123    1.359   1_556 A
N125   C120    1.358   1_556 A
C126   N131    1.357   .     A
C126   N127    1.358   1_554 A
N127   N128    1.333   .     A
N127   C126    1.358   1_556 A
N128   C129    1.358   1_556 A
C129   N130    1.356   .     A
C129   N128    1.358   1_554 A
N130   N131    1.331   .     A
C132   N133    1.356   .     A
C132   C138    1.469   .     S
C132   N137    1.359   1_554 A
N133   N134    1.331   .     A
N134   C135    1.357   .     A
C135   N136    1.358   1_554 A
N136   N137    1.335   .     A
N136   C135    1.358   1_556 A
N137   C132    1.359   1_556 A
C138   N143    1.358   .     A
C138   N139    1.357   1_554 A
N139   N140    1.334   .     A
N139   C138    1.357   1_556 A
N140   C141    1.359   .     A
C141   C144    1.470   .     S
C141   N142    1.357   1_556 A
N142   N143    1.333   .     A
N142   C141    1.357   1_554 A
C144   N149    1.357   .     A
C144   N145    1.359   1_556 A
N145   N146    1.334   .     A
N145   C144    1.359   1_554 A
N146   C147    1.358   1_554 A
C147   N148    1.358   .     A
C147   N146    1.358   1_556 A
N148   N149    1.332   .     A
C150   N155    1.357   .     A
C150   C156    1.466   .     S
C150   N151    1.357   1_556 A
N151   N152    1.332   .     A
N151   C150    1.357   1_554 A
N152   C153    1.358   1_554 A
C153   N154    1.356   .     A
C153   N152    1.358   1_556 A
N154   N155    1.331   .     A
C156   N157    1.357   .     A
C156   N161    1.358   1_556 A
N157   N158    1.331   .     A
N158   C159    1.356   .     A
C159   C162    1.465   .     S
C159   N160    1.358   1_556 A
N160   N161    1.333   .     A
N160   C159    1.358   1_554 A
N161   C156    1.358   1_554 A
C162   N167    1.357   .     A
C162   N163    1.358   1_556 A
N163   N164    1.333   .     A
N163   C162    1.358   1_554 A
N164   C165    1.358   1_554 A
C165   N166    1.356   .     A
C165   N164    1.358   1_556 A
N166   N167    1.331   .     A
C168   N173    1.357   .     A
C168   C174    1.468   .     S
C168   N169    1.359   1_554 A
N169   N170    1.334   .     A
N169   C168    1.359   1_556 A
N170   C171    1.357   1_556 A
C171   N172    1.358   .     A
C171   N170    1.357   1_554 A
N172   N173    1.332   .     A
C174   N175    1.359   .     A
C174   N179    1.357   1_554 A
N175   N176    1.333   .     A
N176   C177    1.357   1_554 A
C177   N178    1.358   .     A
C177   C180    1.468   .     S
C177   N176    1.357   1_556 A
N178   N179    1.333   .     A
N179   C174    1.357   1_556 A
C180   N181    1.356   .     A
C180   N185    1.359   1_556 A
N181   N182    1.331   .     A
N182   C183    1.357   .     A
C183   N184    1.358   1_556 A
N184   N185    1.335   .     A
N184   C183    1.358   1_554 A
N185   C180    1.359   1_554 A
C186   N191    1.358   .     A
C186   C192    1.466   .     S
C186   N187    1.356   1_556 A
N187   N188    1.331   .     A
N187   C186    1.356   1_554 A
N188   C189    1.357   1_554 A
C189   N190    1.356   .     A
C189   N188    1.357   1_556 A
N190   N191    1.333   .     A
C192   N193    1.357   .     A
C192   N197    1.357   1_556 A
N193   N194    1.332   .     A
N194   C195    1.358   .     A
C195   C198    1.468   .     S
C195   N196    1.357   1_556 A
N196   N197    1.331   .     A
N196   C195    1.357   1_554 A
N197   C192    1.357   1_554 A
C198   N203    1.357   .     A
C198   N199    1.358   1_556 A
N199   N200    1.332   .     A
N199   C198    1.358   1_554 A
N200   C201    1.357   1_554 A
C201   N202    1.358   .     A
C201   N200    1.357   1_556 A
C201   C15     1.466   1_556 S
N202   N203    1.332   .     A
C204   N205    1.355   .     A
C204   C210    1.468   .     S
C204   N209    1.361   1_554 A
N205   N206    1.328   .     A
N206   C207    1.356   .     A
C207   N208    1.359   1_554 A
N208   N209    1.336   .     A
N208   C207    1.359   1_556 A
N209   C204    1.361   1_556 A
C210   N215    1.357   .     A
C210   N211    1.358   1_554 A
N211   N212    1.334   .     A
N211   C210    1.358   1_556 A
N212   C213    1.359   1_556 A
C213   N214    1.356   .     A
C213   C216    1.468   .     S
C213   N212    1.359   1_554 A
N214   N215    1.330   .     A
C216   N217    1.358   .     A
C216   N221    1.357   1_554 A
N217   N218    1.332   .     A
N218   C219    1.355   .     A
C219   N220    1.358   1_554 A
N220   N221    1.332   .     A
N220   C219    1.358   1_556 A
N221   C216    1.357   1_556 A
