data_kag+N505+E14
_audit_creation_date              2025-01-21
_audit_creation_method            'Materials Studio'
_symmetry_space_group_name_H-M    'P1'
_symmetry_Int_Tables_number       1
_symmetry_cell_setting            triclinic
loop_
_symmetry_equiv_pos_as_xyz
  x,y,z
_cell_length_a                    23.0662
_cell_length_b                    18.3053
_cell_length_c                    12.6536
_cell_angle_alpha                 112.8417
_cell_angle_beta                  76.8991
_cell_angle_gamma                 101.0107
loop_
_atom_site_label
_atom_site_type_symbol
_atom_site_fract_x
_atom_site_fract_y
_atom_site_fract_z
_atom_site_U_iso_or_equiv
_atom_site_adp_type
_atom_site_occupancy
Yb0    Yb    0.58651   0.52634   0.92047   0.00000  Uiso   1.00
Yb1    Yb    0.40984   0.51849   0.20717   0.00000  Uiso   1.00
C2     C     0.30363   0.49662   0.18987   0.00000  Uiso   1.00
O3     O     0.53133   0.46681   0.79493   0.00000  Uiso   1.00
O4     O     0.58071   0.58494   0.81045   0.00000  Uiso   1.00
O5     O     0.51127   0.57591   0.04415   0.00000  Uiso   1.00
O6     O     0.42187   0.60628   1.12138   0.00000  Uiso   1.00
O7     O     0.67045   0.49521   0.82553   0.00000  Uiso   1.00
O8     O     0.66112   0.59202  -0.00256   0.00000  Uiso   1.00
O9     O     0.45522   0.58187   0.34690   0.00000  Uiso   1.00
O10    O     0.40741   0.46193   0.32454   0.00000  Uiso   1.00
C11    C     0.54402   0.52557   0.75849   0.00000  Uiso   1.00
O12    O     0.57909   0.43740   0.00069   0.00000  Uiso   1.00
O13    O     0.49189   0.46880   1.10582   0.00000  Uiso   1.00
O14    O     0.32332   0.54913   0.28096   0.00000  Uiso   1.00
C15    C     0.47090   0.61717   0.05590   0.00000  Uiso   1.00
O16    O     0.34113   0.45045   1.11221   0.00000  Uiso   1.00
C17    C     0.69582   0.54845   0.90905   0.00000  Uiso   1.00
C18    C     0.44054   0.52314   0.38359   0.00000  Uiso   1.00
C19    C     0.53293   0.42332   0.07184   0.00000  Uiso   1.00
Yb20   Yb    0.03721   0.60295   0.93070   0.00000  Uiso   1.00
Yb21   Yb    0.95389   0.39805   0.07597   0.00000  Uiso   1.00
C22    C     0.90826   0.26899  -0.04376   0.00000  Uiso   1.00
O23    O     0.02282   0.49836   0.78873   0.00000  Uiso   1.00
O24    O     0.98768   0.60902   0.81505   0.00000  Uiso   1.00
O25    O     0.95800   0.57001   1.03873   0.00000  Uiso   1.00
O26    O     0.91121   0.44818   0.99079   0.00000  Uiso   1.00
O27    O     0.11272   0.65577   0.84988   0.00000  Uiso   1.00
O28    O     0.06468   0.72527   0.02050   0.00000  Uiso   1.00
O29    O     0.93134   0.46917   0.24991   0.00000  Uiso   1.00
O30    O    -0.01946   0.36523   0.19798   0.00000  Uiso   1.00
C31    C     0.99555   0.53584   0.75026   0.00000  Uiso   1.00
O32    O     0.09431   0.57109   0.01396   0.00000  Uiso   1.00
O33    O     0.03681   0.47369   0.06631   0.00000  Uiso   1.00
O34    O     0.88238   0.30812   0.05917   0.00000  Uiso   1.00
C35    C     0.91791   0.51814   0.98999   0.00000  Uiso   1.00
O36    O     0.96181   0.29697   0.92146   0.00000  Uiso   1.00
C37    C     0.11051   0.72173   0.93824   0.00000  Uiso   1.00
C38    C    -0.04339   0.42501   0.28041   0.00000  Uiso   1.00
C39    C     0.08618   0.51855   0.06073   0.00000  Uiso   1.00
Yb40   Yb    0.42993   0.96634   0.07724   0.00000  Uiso   1.00
Yb41   Yb    0.60229   0.00688   0.81648   0.00000  Uiso   1.00
C42    C     0.70882   0.06141   0.79931   0.00000  Uiso   1.00
O43    O     0.48548   0.92886   0.15195   0.00000  Uiso   1.00
O44    O     0.41566   0.00504   0.26135   0.00000  Uiso   1.00
O45    O     0.49655   0.06327   0.06960   0.00000  Uiso   1.00
O46    O     0.59087   0.09174  -0.00555   0.00000  Uiso   1.00
O47    O     0.35687   0.87907   0.06985   0.00000  Uiso   1.00
O48    O     0.35130   0.98809   1.03995   0.00000  Uiso   1.00
O49    O     0.52907   0.02150   0.75658   0.00000  Uiso   1.00
O50    O     0.59701   0.94453   0.63853   0.00000  Uiso   1.00
C51    C     0.45851  -0.03387   0.25493   0.00000  Uiso   1.00
O52    O     0.46258   0.91077   0.89656   0.00000  Uiso   1.00
O53    O     0.55922   0.90439   0.85899   0.00000  Uiso   1.00
O54    O     0.66977   0.09108   0.77298   0.00000  Uiso   1.00
C55    C     0.54062   0.11495   0.05699   0.00000  Uiso   1.00
O56    O     0.68989  -0.00094  -0.17355   0.00000  Uiso   1.00
C57    C     0.32663   0.91889   0.04129   0.00000  Uiso   1.00
C58    C     0.54936   0.97704   0.65189   0.00000  Uiso   1.00
C59    C     0.50625   0.87276   0.88056   0.00000  Uiso   1.00
C60    C     0.45631   0.45592   0.51151   0.00000  Uiso   1.00
C61    C     0.46300   0.52521   0.48511   0.00000  Uiso   1.00
C62    C     0.49516   0.59510   0.55121   0.00000  Uiso   1.00
C63    C     0.52188   0.59513   0.63974   0.00000  Uiso   1.00
C64    C     0.51697   0.52510   0.66336   0.00000  Uiso   1.00
C65    C     0.48292   0.45592   0.60012   0.00000  Uiso   1.00
H66    H     0.43130   0.40162   0.46268   0.00000  Uiso   1.00
H67    H     0.50064   0.64963   0.53320   0.00000  Uiso   1.00
H68    H     0.54752   0.64943   0.68777   0.00000  Uiso   1.00
H69    H     0.47713   0.40156   0.61860   0.00000  Uiso   1.00
C70    C     0.93823   0.53385   0.60460   0.00000  Uiso   1.00
C71    C     0.97739   0.49840   0.63496   0.00000  Uiso   1.00
C72    C     0.00464   0.43225   0.55015   0.00000  Uiso   1.00
C73    C    -0.00482   0.40513   0.43547   0.00000  Uiso   1.00
C74    C    -0.04075   0.44429   0.40358   0.00000  Uiso   1.00
C75    C     0.92890   0.50684   0.49007   0.00000  Uiso   1.00
H76    H     0.91658   0.58451   0.66857   0.00000  Uiso   1.00
H77    H     0.03527   0.40414   0.57181   0.00000  Uiso   1.00
H78    H     0.01838   0.35626   0.37073   0.00000  Uiso   1.00
H79    H     0.90031   0.53725   0.46771   0.00000  Uiso   1.00
C80    C     0.51922  -0.08666   0.34435   0.00000  Uiso   1.00
C81    C     0.47713  -0.03568   0.35860   0.00000  Uiso   1.00
C82    C     0.45563   0.01508   0.47125   0.00000  Uiso   1.00
C83    C     0.47736   1.01678   0.56726   0.00000  Uiso   1.00
C84    C     0.52127   0.96789   0.55219   0.00000  Uiso   1.00
C85    C     0.54092   0.91501   0.44008   0.00000  Uiso   1.00
H86    H     0.53596  -0.12730   0.25860   0.00000  Uiso   1.00
H87    H     0.42308   0.05498   0.48531   0.00000  Uiso   1.00
H88    H     0.46154   1.05866   0.65269   0.00000  Uiso   1.00
H89    H     0.57436   0.87629   0.42576   0.00000  Uiso   1.00
C90    C     0.23470   0.57105   0.16357   0.00000  Uiso   1.00
C91    C     0.24461   0.49959   0.16738   0.00000  Uiso   1.00
C92    C     0.19958   0.43394   0.14548   0.00000  Uiso   1.00
C93    C     0.14551   0.44028   0.11689   0.00000  Uiso   1.00
C94    C     0.13646   0.51207   0.11002   0.00000  Uiso   1.00
C95    C     0.17951   0.57867   0.14175   0.00000  Uiso   1.00
H96    H     0.26905   0.62137   0.17993   0.00000  Uiso   1.00
H97    H     0.20672   0.37807   0.14812   0.00000  Uiso   1.00
H98    H     0.11232   0.38846   0.09501   0.00000  Uiso   1.00
H99    H     0.17174   0.63566   0.14306   0.00000  Uiso   1.00
C100   C     0.85495   0.13307  -0.08837   0.00000  Uiso   1.00
C101   C     0.87390   0.20048  -0.11896   0.00000  Uiso   1.00
C102   C     0.84514   0.21265   0.80335   0.00000  Uiso   1.00
C103   C     0.79345   0.16310   0.76788   0.00000  Uiso   1.00
C104   C     0.77081   0.10025   0.80820   0.00000  Uiso   1.00
C105   C     0.80421   0.08228  -0.12627   0.00000  Uiso   1.00
H106   H     0.87526   0.12409  -0.02547   0.00000  Uiso   1.00
H107   H     0.86009   0.26401   0.77687   0.00000  Uiso   1.00
H108   H     0.76899   0.17721   0.71588   0.00000  Uiso   1.00
H109   H     0.78732   0.03476  -0.09258   0.00000  Uiso   1.00
C110   C     0.84612   0.61007   1.00834   0.00000  Uiso   1.00
C111   C     0.87272   0.53912   0.94429   0.00000  Uiso   1.00
C112   C     0.84569   0.47953   0.85411   0.00000  Uiso   1.00
C113   C     0.79103   0.48815   0.83403   0.00000  Uiso   1.00
C114   C     0.76057   0.55374   0.90779   0.00000  Uiso   1.00
C115   C     0.78953   0.61643   0.99196   0.00000  Uiso   1.00
H116   H     0.86558   0.65566   1.07994   0.00000  Uiso   1.00
H117   H     0.86198   0.42194   0.80740   0.00000  Uiso   1.00
H118   H     0.77000   0.43871   0.76841   0.00000  Uiso   1.00
H119   H     0.76668   0.66759   1.04989   0.00000  Uiso   1.00
C120   C     0.21443   0.90989   0.06250   0.00000  Uiso   1.00
C121   C     0.26962   0.88165   0.00134   0.00000  Uiso   1.00
C122   C     0.27061   0.80912  -0.09216   0.00000  Uiso   1.00
C123   C     0.21763   0.76157   0.88040   0.00000  Uiso   1.00
C124   C     0.16226   0.78449   0.94872   0.00000  Uiso   1.00
C125   C     0.16062   0.86068   1.03727   0.00000  Uiso   1.00
H126   H     0.21318   0.96690   0.13444   0.00000  Uiso   1.00
H127   H     0.31287   0.78745  -0.14066   0.00000  Uiso   1.00
H128   H     0.22054   0.70363   0.81110   0.00000  Uiso   1.00
H129   H     0.11841   0.88045   1.09019   0.00000  Uiso   1.00
C130   C     0.44288   0.75386   0.91634   0.00000  Uiso   1.00
C131   C     0.49756   0.80307   0.91680   0.00000  Uiso   1.00
C132   C     0.54410   0.78708   0.95645   0.00000  Uiso   1.00
C133   C     0.53570   0.72439   0.99776   0.00000  Uiso   1.00
C134   C     0.48071   0.67643   0.99973   0.00000  Uiso   1.00
C135   C     0.43444   0.69097   0.95790   0.00000  Uiso   1.00
H136   H     0.40681   0.76329   0.88343   0.00000  Uiso   1.00
H137   H     0.58666   0.82421   0.95902   0.00000  Uiso   1.00
H138   H     0.57129   0.71571   1.03293   0.00000  Uiso   1.00
H139   H     0.39149   0.65478   0.95896   0.00000  Uiso   1.00
C140   C     0.58309   0.33451   0.11980   0.00000  Uiso   1.00
C141   C     0.52978   0.35594   0.11033   0.00000  Uiso   1.00
C142   C     0.47670   0.30319   0.11313   0.00000  Uiso   1.00
C143   C     0.47872   0.22612   0.11011   0.00000  Uiso   1.00
C144   C     0.53399   0.20135   0.10465   0.00000  Uiso   1.00
C145   C     0.58516   0.25808   0.11720   0.00000  Uiso   1.00
H146   H     0.62426   0.37479   0.11942   0.00000  Uiso   1.00
H147   H     0.43521   0.31850   0.10493   0.00000  Uiso   1.00
H148   H     0.43876   0.18329   0.09777   0.00000  Uiso   1.00
H149   H     0.62828   0.24084   0.11304   0.00000  Uiso   1.00
loop_
_geom_bond_atom_site_label_1
_geom_bond_atom_site_label_2
_geom_bond_distance
_geom_bond_site_symmetry_2
_ccdc_geom_bond_type
Yb0    O3      2.091   .     S
Yb0    O4      2.099   .     S
Yb0    O7      2.086   .     S
Yb0    O5      2.134   1_556 S
Yb0    O8      2.102   1_556 S
Yb0    O12     2.193   1_556 S
Yb1    O9      2.086   .     S
Yb1    O10     2.101   .     S
Yb1    O14     2.085   .     S
Yb1    O6      2.210   1_554 S
Yb1    O13     2.169   1_554 S
Yb1    O16     2.111   1_554 S
C2     O14     1.292   .     A
C2     C91     1.467   .     S
C2     O16     1.295   1_554 A
O3     C11     1.288   .     A
O4     C11     1.295   .     A
O5     C15     1.256   .     A
O5     Yb0     2.134   1_554 S
O6     Yb1     2.210   1_556 S
O6     C15     1.274   1_556 A
O7     C17     1.293   .     A
O8     Yb0     2.102   1_554 S
O8     C17     1.293   1_554 A
O9     C18     1.290   .     A
O10    C18     1.296   .     A
C11    C64     1.473   .     S
O12    C19     1.285   .     A
O12    Yb0     2.193   1_554 S
O13    Yb1     2.169   1_556 S
O13    C19     1.270   1_556 A
C15    O6      1.274   1_554 A
C15    C134    1.471   1_554 S
O16    Yb1     2.111   1_556 S
O16    C2      1.295   1_556 A
C17    C114    1.475   .     S
C17    O8      1.293   1_556 A
C18    C61     1.475   .     S
C19    C141    1.476   .     S
C19    O13     1.270   1_554 A
Yb20   O23     2.088   .     S
Yb20   O27     2.081   .     S
Yb20   O24     2.096   1_455 S
Yb20   O25     2.158   1_455 S
Yb20   O28     2.125   1_556 S
Yb20   O32     2.141   1_556 S
Yb21   O29     2.080   .     S
Yb21   O34     2.080   .     S
Yb21   O26     2.137   1_554 S
Yb21   O30     2.101   1_655 S
Yb21   O33     2.146   1_655 S
Yb21   O36     2.107   1_554 S
C22    O34     1.285   .     A
C22    C101    1.464   .     S
C22    O36     1.292   1_554 A
O23    C31     1.291   1_455 A
O24    C31     1.293   .     A
O24    Yb20    2.096   1_655 S
O25    C35     1.267   .     A
O25    Yb20    2.158   1_655 S
O26    C35     1.264   .     A
O26    Yb21    2.137   1_556 S
O27    C37     1.289   .     A
O28    Yb20    2.125   1_554 S
O28    C37     1.296   1_554 A
O29    C38     1.291   1_655 A
O30    C38     1.294   .     A
O30    Yb21    2.101   1_455 S
C31    C71     1.471   .     S
C31    O23     1.291   1_655 A
O32    C39     1.278   .     A
O32    Yb20    2.141   1_554 S
O33    C39     1.276   .     A
O33    Yb21    2.146   1_455 S
C35    C111    1.472   .     S
O36    Yb21    2.107   1_556 S
O36    C22     1.292   1_556 A
C37    C124    1.481   .     S
C37    O28     1.296   1_556 A
C38    C74     1.471   .     S
C38    O29     1.291   1_455 A
C39    C94     1.479   .     S
Yb40   O43     2.096   .     S
Yb40   O47     2.080   .     S
Yb40   O44     2.121   1_565 S
Yb40   O45     2.131   1_565 S
Yb40   O48     2.117   1_554 S
Yb40   O52     2.130   1_554 S
Yb41   O49     2.100   .     S
Yb41   O54     2.111   .     S
Yb41   O46     2.174   1_556 S
Yb41   O50     2.113   1_545 S
Yb41   O53     2.151   1_545 S
Yb41   O56     2.088   1_556 S
C42    O54     1.296   .     A
C42    C104    1.478   .     S
C42    O56     1.287   1_556 A
O43    C51     1.286   1_565 A
O44    C51     1.295   .     A
O44    Yb40    2.121   1_545 S
O45    C55     1.277   .     A
O45    Yb40    2.131   1_545 S
O46    C55     1.289   .     A
O46    Yb41    2.174   1_554 S
O47    C57     1.289   .     A
O48    Yb40    2.117   1_556 S
O48    C57     1.291   1_556 A
O49    C58     1.290   1_545 A
O50    C58     1.295   .     A
O50    Yb41    2.113   1_565 S
C51    C81     1.484   .     S
C51    O43     1.286   1_545 A
O52    C59     1.267   .     A
O52    Yb40    2.130   1_556 S
O53    C59     1.266   .     A
O53    Yb41    2.151   1_565 S
C55    C144    1.483   .     S
O56    Yb41    2.088   1_554 S
O56    C42     1.287   1_554 A
C57    C121    1.463   .     S
C57    O48     1.291   1_554 A
C58    C84     1.485   .     S
C58    O49     1.290   1_565 A
C59    C131    1.481   .     S
C60    C61     1.405   .     A
C60    C65     1.395   .     A
C60    H66     1.081   .     S
C61    C62     1.405   .     A
C62    C63     1.395   .     A
C62    H67     1.086   .     S
C63    C64     1.404   .     A
C63    H68     1.085   .     S
C64    C65     1.407   .     A
C65    H69     1.085   .     S
C70    C71     1.400   .     A
C70    C75     1.391   .     A
C70    H76     1.084   .     S
C71    C72     1.410   1_655 A
C72    C73     1.394   .     A
C72    H77     1.084   .     S
C72    C71     1.410   1_455 A
C73    C74     1.402   .     A
C73    H78     1.083   .     S
C74    C75     1.409   1_455 A
C75    H79     1.083   .     S
C75    C74     1.409   1_655 A
C80    C81     1.408   .     A
C80    H86     1.083   .     S
C80    C85     1.400   1_545 A
C81    C82     1.403   .     A
C82    H87     1.085   .     S
C82    C83     1.403   1_545 A
C83    C84     1.410   .     A
C83    H88     1.084   .     S
C83    C82     1.403   1_565 A
C84    C85     1.402   .     A
C85    H89     1.084   .     S
C85    C80     1.400   1_565 A
C90    C91     1.391   .     A
C90    C95     1.405   .     A
C90    H96     1.080   .     S
C91    C92     1.412   .     A
C92    C93     1.412   .     A
C92    H97     1.081   .     S
C93    C94     1.407   .     A
C93    H98     1.085   .     S
C94    C95     1.404   .     A
C95    H99     1.085   .     S
C100   C101    1.397   .     A
C100   C105    1.399   .     A
C100   H106    1.086   .     S
C101   C102    1.407   1_554 A
C102   C103    1.400   .     A
C102   H107    1.088   .     S
C102   C101    1.407   1_556 A
C103   C104    1.401   .     A
C103   H108    1.083   .     S
C104   C105    1.410   1_556 A
C105   H109    1.083   .     S
C105   C104    1.410   1_554 A
C110   C111    1.408   .     A
C110   C115    1.400   .     A
C110   H116    1.083   .     S
C111   C112    1.406   .     A
C112   C113    1.390   .     A
C112   H117    1.081   .     S
C113   C114    1.400   .     A
C113   H118    1.084   .     S
C114   C115    1.407   .     A
C115   H119    1.083   .     S
C120   C121    1.407   .     A
C120   H126    1.087   .     S
C120   C125    1.408   1_554 A
C121   C122    1.394   .     A
C122   H127    1.082   .     S
C122   C123    1.387   1_554 A
C123   C124    1.406   .     A
C123   H128    1.085   .     S
C123   C122    1.387   1_556 A
C124   C125    1.410   .     A
C125   H129    1.085   .     S
C125   C120    1.408   1_556 A
C130   C131    1.403   .     A
C130   C135    1.406   .     A
C130   H136    1.079   .     S
C131   C132    1.403   .     A
C132   C133    1.401   .     A
C132   H137    1.081   .     S
C133   C134    1.399   .     A
C133   H138    1.081   .     S
C134   C135    1.402   .     A
C134   C15     1.471   1_556 S
C135   H139    1.082   .     S
C140   C141    1.403   .     A
C140   C145    1.396   .     A
C140   H146    1.086   .     S
C141   C142    1.410   .     A
C142   C143    1.406   .     A
C142   H147    1.084   .     S
C143   C144    1.411   .     A
C143   H148    1.088   .     S
C144   C145    1.409   .     A
C145   H149    1.084   .     S
