data_kag+N123+E14
_audit_creation_date              2025-01-21
_audit_creation_method            'Materials Studio'
_symmetry_space_group_name_H-M    'P1'
_symmetry_Int_Tables_number       1
_symmetry_cell_setting            triclinic
loop_
_symmetry_equiv_pos_as_xyz
  x,y,z
_cell_length_a                    26.7873
_cell_length_b                    25.1499
_cell_length_c                    10.5910
_cell_angle_alpha                 100.2182
_cell_angle_beta                  86.8678
_cell_angle_gamma                 127.3112
loop_
_atom_site_label
_atom_site_type_symbol
_atom_site_fract_x
_atom_site_fract_y
_atom_site_fract_z
_atom_site_U_iso_or_equiv
_atom_site_adp_type
_atom_site_occupancy
Ce0    Ce    0.57816   0.54528   0.06643   0.00000  Uiso   1.00
Ce1    Ce    0.43694   0.47914   1.04465   0.00000  Uiso   1.00
C2     C     0.47983   0.48145   0.27871   0.00000  Uiso   1.00
C3     C     0.70131   0.59848   0.04567   0.00000  Uiso   1.00
C4     C     0.53528   0.63755   1.01478   0.00000  Uiso   1.00
C5     C     0.54240   0.51320   0.81350   0.00000  Uiso   1.00
C6     C     0.31561   0.42864   1.02285   0.00000  Uiso   1.00
C7     C     0.47919   0.38066   0.05260   0.00000  Uiso   1.00
O8     O     0.43323   0.43043   0.21669   0.00000  Uiso   1.00
O9     O     0.50993   0.53589   0.21552   0.00000  Uiso   1.00
O10    O     0.67921   0.60458   0.15272   0.00000  Uiso   1.00
O11    O     0.66127   0.56824   0.94923   0.00000  Uiso   1.00
O12    O     0.58204   0.63822   1.04509   0.00000  Uiso   1.00
O13    O     0.47687   0.58442   1.00360   0.00000  Uiso   1.00
O14    O     0.59753   0.55162   0.85273   0.00000  Uiso   1.00
O15    O     0.50329   0.47702   0.90560   0.00000  Uiso   1.00
O16    O     0.34283   0.41792   0.92988   0.00000  Uiso   1.00
O17    O     0.34838   0.45970   0.12999   0.00000  Uiso   1.00
O18    O     0.43203   0.38384   0.05687   0.00000  Uiso   1.00
O19    O     0.53822   0.43316   0.05975   0.00000  Uiso   1.00
Ce20   Ce    0.03360   0.47066  -0.02522   0.00000  Uiso   1.00
Ce21   Ce    0.97127   0.53967   0.00794   0.00000  Uiso   1.00
C22    C     0.98789   0.52687   0.75801   0.00000  Uiso   1.00
C23    C     0.10161   0.42381   0.97602   0.00000  Uiso   1.00
C24    C     0.88106   0.37373  -0.02289   0.00000  Uiso   1.00
C25    C     0.03012   0.49492   0.23053   0.00000  Uiso   1.00
C26    C     0.91098   0.59573   0.01576   0.00000  Uiso   1.00
C27    C     0.12371   0.63574   1.00093   0.00000  Uiso   1.00
O28    O     0.96786   0.55777   0.80661   0.00000  Uiso   1.00
O29    O     0.98716   0.48768   0.83524   0.00000  Uiso   1.00
O30    O     0.08009   0.42456   0.87143   0.00000  Uiso   1.00
O31    O     0.08421   0.44154   0.07834   0.00000  Uiso   1.00
O32    O     0.93048   0.37463  -0.02516   0.00000  Uiso   1.00
O33    O     0.88339   0.42750  -0.01359   0.00000  Uiso   1.00
O34    O     0.05541   0.46976   0.18159   0.00000  Uiso   1.00
O35    O     0.00753   0.51211   0.14494   0.00000  Uiso   1.00
O36    O     0.93140   0.59191   0.11751   0.00000  Uiso   1.00
O37    O     0.92437   0.57442   0.91077   0.00000  Uiso   1.00
O38    O     0.07511   0.63542   1.01465   0.00000  Uiso   1.00
O39    O     0.12057   0.58151   0.98572   0.00000  Uiso   1.00
Ce40   Ce    0.52660   0.95818   0.97079   0.00000  Uiso   1.00
Ce41   Ce    0.47856   0.04661  -0.02088   0.00000  Uiso   1.00
C42    C     0.48629   0.01357   0.21258   0.00000  Uiso   1.00
C43    C     0.55590   0.87247   0.95972   0.00000  Uiso   1.00
C44    C     0.63024   0.11939   0.95496   0.00000  Uiso   1.00
C45    C     0.51867   0.99001   0.73585   0.00000  Uiso   1.00
C46    C     0.44919   0.13256  -0.00204   0.00000  Uiso   1.00
C47    C     0.37458   0.88604  -0.00465   0.00000  Uiso   1.00
O48    O     0.44213   0.00902   0.17510   0.00000  Uiso   1.00
O49    O     0.53087   0.03574   0.12363   0.00000  Uiso   1.00
O50    O     0.57047   0.91772   0.05923   0.00000  Uiso   1.00
O51    O     0.53122   0.87494   0.86360   0.00000  Uiso   1.00
O52    O     0.62186   0.06241   0.95368   0.00000  Uiso   1.00
O53    O     0.58524   0.12540  -0.03907   0.00000  Uiso   1.00
O54    O     0.56267   0.99391   0.77333   0.00000  Uiso   1.00
O55    O     0.47446   0.96894   0.82553   0.00000  Uiso   1.00
O56    O     0.43702   0.09066   0.89435   0.00000  Uiso   1.00
O57    O     0.47145   0.12705   0.09356   0.00000  Uiso   1.00
O58    O     0.38345   0.94329  -0.00221   0.00000  Uiso   1.00
O59    O     0.41969   0.87996   0.98933   0.00000  Uiso   1.00
C60    C     0.53150   0.55213   0.49343   0.00000  Uiso   1.00
C61    C     0.49677   0.48743   0.41415   0.00000  Uiso   1.00
C62    C     0.47469   0.43000   0.46909   0.00000  Uiso   1.00
C63    C     0.48834   0.43761   0.60036   0.00000  Uiso   1.00
C64    C     0.52312   0.50257   0.67847   0.00000  Uiso   1.00
C65    C     0.54525   0.55965   0.62374   0.00000  Uiso   1.00
H66    H     0.54813   0.59716   0.45493   0.00000  Uiso   1.00
H67    H     0.44778   0.37987   0.40989   0.00000  Uiso   1.00
H68    H     0.47216   0.39326   0.64023   0.00000  Uiso   1.00
H69    H     0.57226   0.60996   0.68296   0.00000  Uiso   1.00
C70    C     0.98088   0.54201   0.53848   0.00000  Uiso   1.00
C71    C     0.00353   0.52415   0.62597   0.00000  Uiso   1.00
C72    C     0.03819   0.49980   0.58441   0.00000  Uiso   1.00
C73    C     0.04842   0.49108   0.45480   0.00000  Uiso   1.00
C74    C     0.02412   0.50704   0.36729   0.00000  Uiso   1.00
C75    C     0.99086   0.53314   0.40988   0.00000  Uiso   1.00
H76    H     0.95377   0.56029   0.56909   0.00000  Uiso   1.00
H77    H     0.05680   0.48722   0.65229   0.00000  Uiso   1.00
H78    H     0.07474   0.47179   0.42352   0.00000  Uiso   1.00
H79    H     0.97215   0.54555   0.34289   0.00000  Uiso   1.00
C80    C     0.54995   0.01905   0.38863   0.00000  Uiso   1.00
C81    C     0.49377   0.00496   0.34470   0.00000  Uiso   1.00
C82    C     0.44625   0.98685   0.43140   0.00000  Uiso   1.00
C83    C     0.45484   0.98354   0.55890   0.00000  Uiso   1.00
C84    C     0.51128  -0.00183   0.60323   0.00000  Uiso   1.00
C85    C     0.55865   0.01579   0.51612   0.00000  Uiso   1.00
H86    H     0.58727   0.03322   0.32429   0.00000  Uiso   1.00
H87    H     0.40251   0.97586   0.40096   0.00000  Uiso   1.00
H88    H     0.41738   0.96926   0.62322   0.00000  Uiso   1.00
H89    H     0.60242   0.02656   0.54628   0.00000  Uiso   1.00
C90    C     0.21652   0.40455   0.11055   0.00000  Uiso   1.00
C91    C     0.25341   0.41269   1.00539   0.00000  Uiso   1.00
C92    C     0.23523   0.41570   0.88638   0.00000  Uiso   1.00
C93    C     0.18304   0.41475   0.87417   0.00000  Uiso   1.00
C94    C     0.14738   0.40966  -0.01958   0.00000  Uiso   1.00
C95    C     0.16339   0.40242   0.09799   0.00000  Uiso   1.00
H96    H     0.23013   0.40321   0.20350   0.00000  Uiso   1.00
H97    H     0.26436   0.42417   0.80592   0.00000  Uiso   1.00
H98    H     0.17310   0.42253   0.78417   0.00000  Uiso   1.00
H99    H     0.13696   0.39932   0.18150   0.00000  Uiso   1.00
C100   C     0.76417   0.30552  -0.03485   0.00000  Uiso   1.00
C101   C     0.81754   0.30728  -0.03237   0.00000  Uiso   1.00
C102   C     0.80910   0.24577   0.96152   0.00000  Uiso   1.00
C103   C     0.74826   0.18400   0.95399   0.00000  Uiso   1.00
C104   C     0.69496   0.18272   0.95297   0.00000  Uiso   1.00
C105   C     0.70399   0.24435  -0.04242   0.00000  Uiso   1.00
H106   H     0.76872   0.35159  -0.03024   0.00000  Uiso   1.00
H107   H     0.84933   0.24556   0.96386   0.00000  Uiso   1.00
H108   H     0.74316   0.13777   0.95081   0.00000  Uiso   1.00
H109   H     0.66468   0.24597  -0.04311   0.00000  Uiso   1.00
C110   C     0.85737   0.64082   0.13654   0.00000  Uiso   1.00
C111   C     0.86967   0.61621   1.01849   0.00000  Uiso   1.00
C112   C     0.83439   0.60089   0.90624   0.00000  Uiso   1.00
C113   C     0.78270   0.60186   0.91387   0.00000  Uiso   1.00
C114   C     0.76544   0.61796   0.03379   0.00000  Uiso   1.00
C115   C     0.80533   0.64148   0.14389   0.00000  Uiso   1.00
H116   H     0.88496   0.65502   0.22413   0.00000  Uiso   1.00
H117   H     0.84357   0.58307   0.81373   0.00000  Uiso   1.00
H118   H     0.75319   0.58423   0.82685   0.00000  Uiso   1.00
H119   H     0.79367   0.65547   0.23729   0.00000  Uiso   1.00
C120   C     0.25811   0.82449   0.01874   0.00000  Uiso   1.00
C121   C     0.30997   0.82343  -0.00050   0.00000  Uiso   1.00
C122   C     0.29937   0.76039  -0.01845   0.00000  Uiso   1.00
C123   C     0.23936   0.70045  -0.01760   0.00000  Uiso   1.00
C124   C     0.18718   0.70089   1.00141   0.00000  Uiso   1.00
C125   C     0.19715   0.76363   1.01952   0.00000  Uiso   1.00
H126   H     0.26440   0.87203   1.03221   0.00000  Uiso   1.00
H127   H     0.33817   0.75779  -0.03417   0.00000  Uiso   1.00
H128   H     0.23393   0.65337  -0.03314   0.00000  Uiso   1.00
H129   H     0.15800   0.76574   1.03335   0.00000  Uiso   1.00
C130   C     0.51823   0.75431   0.87847   0.00000  Uiso   1.00
C131   C     0.56015   0.81681   0.96099   0.00000  Uiso   1.00
C132   C     0.59745   0.82113   1.05657   0.00000  Uiso   1.00
C133   C     0.59197   0.76320   1.07003   0.00000  Uiso   1.00
C134   C     0.54791   0.70035   0.99090   0.00000  Uiso   1.00
C135   C     0.51132   0.69626   0.89398   0.00000  Uiso   1.00
H136   H     0.48761   0.74932   0.80629   0.00000  Uiso   1.00
H137   H     0.62878   0.86808   1.12354   0.00000  Uiso   1.00
H138   H     0.61991   0.76712   1.14690   0.00000  Uiso   1.00
H139   H     0.47687   0.64802   0.83202   0.00000  Uiso   1.00
C140   C     0.48379   0.29174   0.92536   0.00000  Uiso   1.00
C141   C     0.46483   0.31370   0.03577   0.00000  Uiso   1.00
C142   C     0.43449   0.27204   0.12897   0.00000  Uiso   1.00
C143   C     0.42602   0.21029   0.11391   0.00000  Uiso   1.00
C144   C     0.44581   0.18895   0.00390   0.00000  Uiso   1.00
C145   C     0.47345   0.22951  -0.09149   0.00000  Uiso   1.00
H146   H     0.50695   0.32333   0.85287   0.00000  Uiso   1.00
H147   H     0.41934   0.28793   0.21437   0.00000  Uiso   1.00
H148   H     0.40603   0.18053   0.18931   0.00000  Uiso   1.00
H149   H     0.49019   0.21477   0.82505   0.00000  Uiso   1.00
loop_
_geom_bond_atom_site_label_1
_geom_bond_atom_site_label_2
_geom_bond_distance
_geom_bond_site_symmetry_2
_ccdc_geom_bond_type
Ce0    O9      2.277   .     S
Ce0    O10     2.298   .     S
Ce0    O19     2.320   .     S
Ce0    O11     2.286   1_554 S
Ce0    O12     2.327   1_554 S
Ce0    O14     2.306   1_554 S
Ce0    O15     2.243   1_554 S
Ce1    O13     2.295   .     S
Ce1    O15     2.265   .     S
Ce1    O16     2.273   .     S
Ce1    O8      2.336   1_556 S
Ce1    O9      2.285   1_556 S
Ce1    O17     2.280   1_556 S
Ce1    O18     2.346   1_556 S
C2     O8      1.219   .     D
C2     O9      1.378   .     S
C2     C61     1.483   .     S
C3     O10     1.279   .     A
C3     C114    1.478   .     S
C3     O11     1.276   1_554 A
C4     O12     1.300   .     A
C4     O13     1.295   .     A
C4     C134    1.469   .     S
C5     O14     1.217   .     D
C5     O15     1.387   .     S
C5     C64     1.470   .     S
C6     O16     1.281   .     A
C6     C91     1.473   .     S
C6     O17     1.277   1_556 A
C7     O18     1.311   .     A
C7     O19     1.302   .     A
C7     C141    1.460   .     S
O8     Ce1     2.336   1_554 S
O9     Ce1     2.285   1_554 S
O11    Ce0     2.286   1_556 S
O11    C3      1.276   1_556 A
O12    Ce0     2.327   1_556 S
O14    Ce0     2.306   1_556 S
O15    Ce0     2.243   1_556 S
O17    Ce1     2.280   1_554 S
O17    C6      1.277   1_554 A
O18    Ce1     2.346   1_554 S
Ce20   O31     2.287   .     S
Ce20   O34     2.305   .     S
Ce20   O35     2.214   .     S
Ce20   O29     2.233   1_454 S
Ce20   O30     2.290   1_554 S
Ce20   O32     2.318   1_455 S
Ce20   O39     2.292   1_554 S
Ce21   O33     2.309   .     S
Ce21   O36     2.289   .     S
Ce21   O28     2.276   1_554 S
Ce21   O29     2.231   1_554 S
Ce21   O35     2.204   1_655 S
Ce21   O37     2.279   1_554 S
Ce21   O38     2.320   1_654 S
C22    O28     1.220   .     D
C22    O29     1.379   .     S
C22    C71     1.440   1_655 S
C23    O30     1.285   .     A
C23    O31     1.271   1_556 A
C23    C94     1.474   1_556 S
C24    O32     1.309   .     A
C24    O33     1.301   .     A
C24    C101    1.487   .     S
C25    O34     1.222   .     D
C25    O35     1.375   .     S
C25    C74     1.447   .     S
C26    O36     1.278   .     A
C26    O37     1.277   1_554 A
C26    C111    1.474   1_554 S
C27    O38     1.297   .     A
C27    O39     1.295   .     A
C27    C124    1.482   .     S
O28    Ce21    2.276   1_556 S
O29    Ce20    2.233   1_656 S
O29    Ce21    2.231   1_556 S
O30    Ce20    2.290   1_556 S
O31    C23     1.271   1_554 A
O32    Ce20    2.318   1_655 S
O35    Ce21    2.204   1_455 S
O37    Ce21    2.279   1_556 S
O37    C26     1.277   1_556 A
O38    Ce21    2.320   1_456 S
O39    Ce20    2.292   1_556 S
Ce40   O51     2.267   .     S
Ce40   O54     2.347   .     S
Ce40   O55     2.287   .     S
Ce40   O59     2.314   .     S
Ce40   O49     2.251   1_566 S
Ce40   O50     2.281   1_556 S
Ce40   O52     2.329   1_565 S
Ce41   O48     2.348   .     S
Ce41   O49     2.286   .     S
Ce41   O53     2.311   .     S
Ce41   O57     2.274   .     S
Ce41   O55     2.260   1_544 S
Ce41   O56     2.286   1_554 S
Ce41   O58     2.320   1_545 S
C42    O48     1.201   .     D
C42    O49     1.371   .     S
C42    C81     1.495   .     S
C43    O51     1.274   .     A
C43    C131    1.474   .     S
C43    O50     1.280   1_556 A
C44    O52     1.307   .     A
C44    C104    1.484   .     S
C44    O53     1.300   1_556 A
C45    O54     1.206   .     D
C45    O55     1.371   .     S
C45    C84     1.495   1_565 S
C46    O57     1.271   .     A
C46    C144    1.465   .     S
C46    O56     1.278   1_554 A
C47    O58     1.305   .     A
C47    C121    1.480   .     S
C47    O59     1.304   1_554 A
O49    Ce40    2.251   1_544 S
O50    Ce40    2.281   1_554 S
O50    C43     1.280   1_554 A
O52    Ce40    2.329   1_545 S
O53    C44     1.300   1_554 A
O55    Ce41    2.260   1_566 S
O56    Ce41    2.286   1_556 S
O56    C46     1.278   1_556 A
O58    Ce41    2.320   1_565 S
O59    C47     1.304   1_556 A
C60    C61     1.408   .     A
C60    C65     1.398   .     A
C60    H66     1.086   .     S
C61    C62     1.414   .     A
C62    C63     1.407   .     A
C62    H67     1.081   .     S
C63    C64     1.408   .     A
C63    H68     1.082   .     S
C64    C65     1.405   .     A
C65    H69     1.084   .     S
C70    C75     1.379   .     A
C70    H76     1.082   .     S
C70    C71     1.403   1_655 A
C71    C72     1.407   .     A
C71    C70     1.403   1_455 A
C71    C22     1.440   1_455 S
C72    C73     1.390   .     A
C72    H77     1.085   .     S
C73    C74     1.399   .     A
C73    H78     1.084   .     S
C74    C75     1.410   1_455 A
C75    H79     1.077   .     S
C75    C74     1.410   1_655 A
C80    C81     1.407   .     A
C80    C85     1.407   .     A
C80    H86     1.082   .     S
C81    C82     1.410   1_545 A
C82    C83     1.407   .     A
C82    H87     1.082   .     S
C82    C81     1.410   1_565 A
C83    H88     1.084   .     S
C83    C84     1.408   1_565 A
C84    C85     1.412   .     A
C84    C83     1.408   1_545 A
C84    C45     1.495   1_545 S
C85    H89     1.084   .     S
C90    C95     1.404   .     A
C90    H96     1.081   .     S
C90    C91     1.405   1_554 A
C91    C92     1.406   .     A
C91    C90     1.405   1_556 A
C92    C93     1.396   .     A
C92    H97     1.082   .     S
C93    H98     1.084   .     S
C93    C94     1.407   1_556 A
C94    C95     1.414   .     A
C94    C93     1.407   1_554 A
C94    C23     1.474   1_554 S
C95    H99     1.086   .     S
C100   C101    1.405   .     A
C100   C105    1.391   .     A
C100   H106    1.081   .     S
C101   C102    1.411   1_554 A
C102   C103    1.406   .     A
C102   H107    1.083   .     S
C102   C101    1.411   1_556 A
C103   C104    1.409   .     A
C103   H108    1.080   .     S
C104   C105    1.408   1_556 A
C105   H109    1.079   .     S
C105   C104    1.408   1_554 A
C110   C115    1.402   .     A
C110   H116    1.082   .     S
C110   C111    1.408   1_554 A
C111   C112    1.405   .     A
C111   C110    1.408   1_556 A
C111   C26     1.474   1_556 S
C112   C113    1.397   .     A
C112   H117    1.083   .     S
C113   H118    1.087   .     S
C113   C114    1.404   1_556 A
C114   C115    1.406   .     A
C114   C113    1.404   1_554 A
C115   H119    1.084   .     S
C120   C121    1.409   .     A
C120   C125    1.408   1_554 A
C120   H126    1.084   1_554 S
C121   C122    1.408   .     A
C122   C123    1.386   .     A
C122   H127    1.082   .     S
C123   H128    1.084   .     S
C123   C124    1.407   1_554 A
C124   C125    1.409   .     A
C124   C123    1.407   1_556 A
C125   H129    1.083   .     S
C125   C120    1.408   1_556 A
H126   C120    1.084   1_556 S
C130   C131    1.406   .     A
C130   C135    1.395   .     A
C130   H136    1.087   .     S
C131   C132    1.405   .     A
C132   C133    1.406   .     A
C132   H137    1.081   .     S
C133   C134    1.404   .     A
C133   H138    1.087   .     S
C134   C135    1.405   .     A
C135   H139    1.087   .     S
C140   H146    1.083   .     S
C140   C141    1.406   1_556 A
C140   C145    1.392   1_556 A
C141   C142    1.407   .     A
C141   C140    1.406   1_554 A
C142   C143    1.406   .     A
C142   H147    1.082   .     S
C143   C144    1.408   .     A
C143   H148    1.079   .     S
C144   C145    1.406   .     A
C145   C140    1.392   1_554 A
C145   H149    1.078   1_554 S
H149   C145    1.078   1_556 S
