data_kag+N155+E9
_audit_creation_date              2025-01-21
_audit_creation_method            'Materials Studio'
_symmetry_space_group_name_H-M    'P1'
_symmetry_Int_Tables_number       1
_symmetry_cell_setting            triclinic
loop_
_symmetry_equiv_pos_as_xyz
  x,y,z
_cell_length_a                    41.0836
_cell_length_b                    43.1708
_cell_length_c                    18.9998
_cell_angle_alpha                 90.1139
_cell_angle_beta                  93.1941
_cell_angle_gamma                 125.4461
loop_
_atom_site_label
_atom_site_type_symbol
_atom_site_fract_x
_atom_site_fract_y
_atom_site_fract_z
_atom_site_U_iso_or_equiv
_atom_site_adp_type
_atom_site_occupancy
C0     C     0.47026   0.39677   0.00125   0.00000  Uiso   1.00
Ho1    Ho    0.48546   0.46389   0.00044   0.00000  Uiso   1.00
C2     C     0.53427   0.61035   1.00144   0.00000  Uiso   1.00
Ho3    Ho    0.51557   0.54186   1.00083   0.00000  Uiso   1.00
O4     O     0.47267   0.41440   0.05802   0.00000  Uiso   1.00
O5     O     0.47039   0.41272   0.94455   0.00000  Uiso   1.00
O6     O     0.47743   0.44435   0.10806   0.00000  Uiso   1.00
O7     O     0.50004   0.50359   0.08619   0.00000  Uiso   1.00
C8     C     0.48850   0.47524   0.13487   0.00000  Uiso   1.00
C9     C     0.51138   0.53071   0.86592   0.00000  Uiso   1.00
O10    O     0.54916   0.48815   0.00984   0.00000  Uiso   1.00
O11    O     0.57482   0.55151   1.00724   0.00000  Uiso   1.00
O12    O     0.53138   0.59249   0.94468   0.00000  Uiso   1.00
O13    O     0.53159   0.59319   0.05792   0.00000  Uiso   1.00
O14    O     0.52355   0.56170   0.89374   0.00000  Uiso   1.00
O15    O     0.49999   0.50197   0.91409   0.00000  Uiso   1.00
O16    O     0.45175   0.51779   0.99175   0.00000  Uiso   1.00
O17    O     0.42610   0.45425  -0.00568   0.00000  Uiso   1.00
C18    C     0.42219   0.48216   0.99178   0.00000  Uiso   1.00
C19    C     0.57869   0.52367   0.01029   0.00000  Uiso   1.00
C20    C     0.08197   0.47947   0.01123   0.00000  Uiso   1.00
Ho21   Ho    0.02733   0.49193   0.00536   0.00000  Uiso   1.00
C22    C     0.91863   0.52737   0.99051   0.00000  Uiso   1.00
Ho23   Ho    0.97350   0.51555   0.99620   0.00000  Uiso   1.00
O24    O     0.06663   0.48132   0.06681   0.00000  Uiso   1.00
O25    O     0.06479   0.48001   0.95371   0.00000  Uiso   1.00
O26    O     0.03895   0.48771   0.11877   0.00000  Uiso   1.00
O27    O     1.00053   0.50441   0.08289   0.00000  Uiso   1.00
C28    C     1.01796   0.49723   0.13867   0.00000  Uiso   1.00
C29    C    -0.01745   0.51036   0.86275   0.00000  Uiso   1.00
O30    O     0.07228   0.55349   0.00996   0.00000  Uiso   1.00
O31    O     0.03081   0.57339   1.00051   0.00000  Uiso   1.00
O32    O     0.93408   0.52586   0.93474   0.00000  Uiso   1.00
O33    O     0.93578   0.52688   0.04815   0.00000  Uiso   1.00
O34    O     0.96105   0.51922   0.88286   0.00000  Uiso   1.00
O35    O     0.00011   0.50313   0.91861   0.00000  Uiso   1.00
O36    O     0.92886   0.45377   0.99151   0.00000  Uiso   1.00
O37    O     0.97045   0.43408   0.00089   0.00000  Uiso   1.00
C38    C     0.93517   0.42766   0.99541   0.00000  Uiso   1.00
C39    C     0.06605   0.57964   0.00602   0.00000  Uiso   1.00
C40    C     0.53139   0.93074   0.99521   0.00000  Uiso   1.00
Ho41   Ho    0.51515   0.98017   0.99850   0.00000  Uiso   1.00
C42    C     0.47423   0.07846   0.00748   0.00000  Uiso   1.00
Ho43   Ho    0.48811   0.02739   0.00349   0.00000  Uiso   1.00
O44    O     0.52702   0.94475   0.93885   0.00000  Uiso   1.00
O45    O     0.53138   0.94629   0.05253   0.00000  Uiso   1.00
O46    O     0.51712   0.96605   0.88950   0.00000  Uiso   1.00
O47    O     0.49831   0.00314   0.91510   0.00000  Uiso   1.00
C48    C     0.50604  -0.01500   0.86455   0.00000  Uiso   1.00
C49    C     0.49757   0.02231   0.13721   0.00000  Uiso   1.00
O50    O     0.45121   0.93524   0.99612   0.00000  Uiso   1.00
O51    O     0.42779   0.97224   0.00214   0.00000  Uiso   1.00
O52    O     0.47864   0.06452   0.06394   0.00000  Uiso   1.00
O53    O     0.47218   0.06159   0.95031   0.00000  Uiso   1.00
O54    O     0.48626   0.04124   0.11313   0.00000  Uiso   1.00
O55    O     0.50503   1.00440   0.08609   0.00000  Uiso   1.00
O56    O     0.55195   0.07216   0.00566   0.00000  Uiso   1.00
O57    O     0.57532   0.03518   1.00014   0.00000  Uiso   1.00
C58    C     0.58052   0.06796   0.00402   0.00000  Uiso   1.00
C59    C     0.42259   0.93940   0.99820   0.00000  Uiso   1.00
C60    C     0.48749   0.49253   0.35061   0.00000  Uiso   1.00
N61    N     0.46696   0.45675   0.32110   0.00000  Uiso   1.00
N62    N     0.46737   0.45125   0.25225   0.00000  Uiso   1.00
C63    C     0.48831   0.48133   0.21050   0.00000  Uiso   1.00
N64    N     0.50833   0.51710   0.23968   0.00000  Uiso   1.00
N65    N     0.50812   0.52260   0.30864   0.00000  Uiso   1.00
C66    C     0.48925   0.49851   0.42717   0.00000  Uiso   1.00
N67    N     0.51264   0.53413   0.45768   0.00000  Uiso   1.00
N68    N     0.51643   0.53929   0.52765   0.00000  Uiso   1.00
C69    C     0.49707   0.50901   0.56964   0.00000  Uiso   1.00
N70    N     0.47322   0.47347   0.53901   0.00000  Uiso   1.00
N71    N     0.46944   0.46832   0.46909   0.00000  Uiso   1.00
C72    C     0.50185   0.51454   0.64690   0.00000  Uiso   1.00
N73    N     0.48288   0.48423   0.68892   0.00000  Uiso   1.00
N74    N     0.48654   0.48934   0.75891   0.00000  Uiso   1.00
C75    C     0.50915   0.52494   0.78931   0.00000  Uiso   1.00
N76    N     0.52855   0.55523   0.74742   0.00000  Uiso   1.00
N77    N     0.52507   0.55011   0.67750   0.00000  Uiso   1.00
C78    C     0.99359   0.50549   0.64699   0.00000  Uiso   1.00
N79    N     0.01704   0.53885   0.68536   0.00000  Uiso   1.00
N80    N     0.01455   0.54000   0.75477   0.00000  Uiso   1.00
C81    C     0.98867   0.50783   0.78840   0.00000  Uiso   1.00
N82    N     0.96574   0.47423   0.75056   0.00000  Uiso   1.00
N83    N     0.96825   0.47307   0.68102   0.00000  Uiso   1.00
C84    C     0.99440   0.50495   0.56965   0.00000  Uiso   1.00
N85    N     0.96952   0.47205   0.53050   0.00000  Uiso   1.00
N86    N     0.97037   0.47159   0.46047   0.00000  Uiso   1.00
C87    C     0.99596   0.50407   0.42689   0.00000  Uiso   1.00
N88    N     0.02045   0.53707   0.46599   0.00000  Uiso   1.00
N89    N     0.01960   0.53752   0.53601   0.00000  Uiso   1.00
C90    C     0.99907   0.50302   0.35016   0.00000  Uiso   1.00
N91    N     0.02588   0.53516   0.31678   0.00000  Uiso   1.00
N92    N     0.03148   0.53343   0.24886   0.00000  Uiso   1.00
C93    C     0.01089   0.49946   0.21236   0.00000  Uiso   1.00
N94    N     0.98293   0.46761   0.24465   0.00000  Uiso   1.00
N95    N     0.97718   0.46934   0.31242   0.00000  Uiso   1.00
C96    C     0.50967   0.01166   0.35285   0.00000  Uiso   1.00
N97    N     0.52641   0.04651   0.32590   0.00000  Uiso   1.00
N98    N     0.52285   0.05004   0.25681   0.00000  Uiso   1.00
C99    C     0.50280   0.01882   0.21239   0.00000  Uiso   1.00
N100   N     0.48712   0.98407   0.23889   0.00000  Uiso   1.00
N101   N     0.49016   0.98049   0.30809   0.00000  Uiso   1.00
C102   C     0.51002   0.00761   0.42933   0.00000  Uiso   1.00
N103   N     0.48766   0.97265   0.45669   0.00000  Uiso   1.00
N104   N     0.48566   0.96903   0.52620   0.00000  Uiso   1.00
C105   C     0.50580   0.00025   0.57079   0.00000  Uiso   1.00
N106   N     0.52839   0.03522   0.54344   0.00000  Uiso   1.00
N107   N     0.53035   0.03884   0.47391   0.00000  Uiso   1.00
C108   C     0.50341  -0.00377   0.64731   0.00000  Uiso   1.00
N109   N     0.52176   0.02744   0.69182   0.00000  Uiso   1.00
N110   N     0.52131   0.02382   0.76146   0.00000  Uiso   1.00
C111   C     0.50267  -0.01113   0.78882   0.00000  Uiso   1.00
N112   N     0.48358   0.95766   0.74445   0.00000  Uiso   1.00
N113   N     0.48368   0.96125   0.67486   0.00000  Uiso   1.00
C114   C     0.32256   0.48355   0.99895   0.00000  Uiso   1.00
N115   N     0.33570   0.47400   0.05638   0.00000  Uiso   1.00
N116   N     0.36546   0.47007   0.05248   0.00000  Uiso   1.00
C117   C     0.38270   0.47487  -0.00926   0.00000  Uiso   1.00
N118   N     0.36952   0.48442   0.93345   0.00000  Uiso   1.00
N119   N     0.33964   0.48812   0.93716   0.00000  Uiso   1.00
C120   C     0.29075   0.48931   1.00352   0.00000  Uiso   1.00
N121   N     0.27499   0.49501   0.94445   0.00000  Uiso   1.00
N122   N     0.24438   0.49767   0.94767   0.00000  Uiso   1.00
C123   C     0.22855   0.49502   0.01012   0.00000  Uiso   1.00
N124   N     0.24518   0.49063   0.06958   0.00000  Uiso   1.00
N125   N     0.27576   0.48788   0.06634   0.00000  Uiso   1.00
C126   C     0.19141   0.49262   0.01168   0.00000  Uiso   1.00
N127   N     0.17421   0.48853   0.07329   0.00000  Uiso   1.00
N128   N     0.13884   0.48332   0.07351   0.00000  Uiso   1.00
C129   C     0.11902   0.48128   0.01199   0.00000  Uiso   1.00
N130   N     0.13646   0.48568   0.95059   0.00000  Uiso   1.00
N131   N     0.17182   0.49105   0.95039   0.00000  Uiso   1.00
C132   C     0.82248   0.32589  -0.00220   0.00000  Uiso   1.00
N133   N     0.83805   0.34136   0.93561   0.00000  Uiso   1.00
N134   N     0.87536   0.37263   0.93445   0.00000  Uiso   1.00
C135   C     0.89891   0.38884  -0.00484   0.00000  Uiso   1.00
N136   N     0.88323   0.37350   0.05732   0.00000  Uiso   1.00
N137   N     0.84586   0.34235   0.05858   0.00000  Uiso   1.00
C138   C     0.78211   0.29046  -0.00093   0.00000  Uiso   1.00
N139   N     0.76666   0.27508   0.06139   0.00000  Uiso   1.00
N140   N     0.73268   0.24033   0.06273   0.00000  Uiso   1.00
C141   C     0.71304   0.21971   1.00176   0.00000  Uiso   1.00
N142   N     0.72746   0.23587   0.93942   0.00000  Uiso   1.00
N143   N     0.76136   0.27065   0.93808   0.00000  Uiso   1.00
C144   C     0.67953   0.17930   1.00311   0.00000  Uiso   1.00
N145   N     0.66425   0.15730   0.94256   0.00000  Uiso   1.00
N146   N     0.63481   0.12033   0.94373   0.00000  Uiso   1.00
C147   C     0.62023   0.10372   1.00562   0.00000  Uiso   1.00
N148   N     0.63505   0.12591   0.06601   0.00000  Uiso   1.00
N149   N     0.66462   0.16286   0.06501   0.00000  Uiso   1.00
C150   C     0.80900   0.51351  -0.01173   0.00000  Uiso   1.00
N151   N     0.82792   0.52048   0.92773   0.00000  Uiso   1.00
N152   N     0.86337   0.52585   0.92828   0.00000  Uiso   1.00
C153   C     0.88157   0.52528   0.98966   0.00000  Uiso   1.00
N154   N     0.86244   0.51801   0.05001   0.00000  Uiso   1.00
N155   N     0.82694   0.51238   0.04938   0.00000  Uiso   1.00
C156   C     0.77202   0.51139  -0.01049   0.00000  Uiso   1.00
N157   N     0.75387   0.50497   0.05073   0.00000  Uiso   1.00
N158   N     0.72345   0.50783   0.05465   0.00000  Uiso   1.00
C159   C     0.71031   0.51757  -0.00236   0.00000  Uiso   1.00
N160   N     0.72769   0.52298   0.93589   0.00000  Uiso   1.00
N161   N     0.75804   0.51998   0.93190   0.00000  Uiso   1.00
C162   C     0.67850   0.52301   0.00330   0.00000  Uiso   1.00
N163   N     0.66821   0.53687   0.94908   0.00000  Uiso   1.00
N164   N     0.63825   0.54043   0.95360   0.00000  Uiso   1.00
C165   C     0.61798   0.53081   1.01292   0.00000  Uiso   1.00
N166   N     0.62823   0.51681   0.06684   0.00000  Uiso   1.00
N167   N     0.65830   0.51350   0.06260   0.00000  Uiso   1.00
C168   C     0.32247   0.82796   0.99567   0.00000  Uiso   1.00
N169   N     0.33998   0.84835   0.05758   0.00000  Uiso   1.00
N170   N     0.36987   0.88525   0.05821   0.00000  Uiso   1.00
C171   C     0.38276   0.90352  -0.00295   0.00000  Uiso   1.00
N172   N     0.36557   0.88301   0.93508   0.00000  Uiso   1.00
N173   N     0.33553   0.84610   0.93432   0.00000  Uiso   1.00
C174   C     0.28848   0.78750   0.99559   0.00000  Uiso   1.00
N175   N     0.26680   0.76838   0.93462   0.00000  Uiso   1.00
N176   N     0.23268   0.73368   0.93586   0.00000  Uiso   1.00
C177   C     0.21904   0.71675   0.99805   0.00000  Uiso   1.00
N178   N     0.24169   0.73515   0.05868   0.00000  Uiso   1.00
N179   N     0.27573   0.76988   0.05746   0.00000  Uiso   1.00
C180   C     0.17859   0.68124   1.00049   0.00000  Uiso   1.00
N181   N     0.16508   0.66415   0.06256   0.00000  Uiso   1.00
N182   N     0.12790   0.63287   0.06517   0.00000  Uiso   1.00
C183   C     0.10240   0.61828   1.00641   0.00000  Uiso   1.00
N184   N     0.11587   0.63528   0.94437   0.00000  Uiso   1.00
N185   N     0.15314   0.66641   0.94158   0.00000  Uiso   1.00
C186   C     0.51759   0.82715  -0.00504   0.00000  Uiso   1.00
N187   N     0.52531   0.84711   0.05634   0.00000  Uiso   1.00
N188   N     0.53160   0.88104   0.05614   0.00000  Uiso   1.00
C189   C     0.53107   0.89659  -0.00554   0.00000  Uiso   1.00
N190   N     0.52363   0.87676   0.93293   0.00000  Uiso   1.00
N191   N     0.51732   0.84277   0.93312   0.00000  Uiso   1.00
C192   C     0.51253   0.79061  -0.00404   0.00000  Uiso   1.00
N193   N     0.50801   0.77165   0.93496   0.00000  Uiso   1.00
N194   N     0.50906   0.74138   0.93613   0.00000  Uiso   1.00
C195   C     0.51474   0.72909  -0.00175   0.00000  Uiso   1.00
N196   N     0.51736   0.74696   0.05934   0.00000  Uiso   1.00
N197   N     0.51629   0.77719   0.05817   0.00000  Uiso   1.00
C198   C     0.52121   0.69908  -0.00088   0.00000  Uiso   1.00
N199   N     0.52846   0.68784   0.06114   0.00000  Uiso   1.00
N200   N     0.53473   0.66082   0.06193   0.00000  Uiso   1.00
C201   C     0.53471   0.64456   0.00066   0.00000  Uiso   1.00
N202   N     0.52788   0.65612   0.93865   0.00000  Uiso   1.00
N203   N     0.52150   0.68306   0.93786   0.00000  Uiso   1.00
C204   C     0.48932   0.31202   0.98789   0.00000  Uiso   1.00
N205   N     0.50572   0.33754   0.04368   0.00000  Uiso   1.00
N206   N     0.49793   0.36341   0.04982   0.00000  Uiso   1.00
C207   C     0.47321   0.36447   1.00080   0.00000  Uiso   1.00
N208   N     0.45709   0.33912   0.94497   0.00000  Uiso   1.00
N209   N     0.46453   0.31306   0.93922   0.00000  Uiso   1.00
C210   C     0.49545   0.28179   0.98250   0.00000  Uiso   1.00
N211   N     0.47372   0.25326   0.93254   0.00000  Uiso   1.00
N212   N     0.47456   0.22292   0.93317   0.00000  Uiso   1.00
C213   C     0.49712   0.21990   0.98377   0.00000  Uiso   1.00
N214   N     0.52039   0.24924   0.03178   0.00000  Uiso   1.00
N215   N     0.51958   0.27969   0.03111   0.00000  Uiso   1.00
C216   C     0.49210   0.18350   0.99077   0.00000  Uiso   1.00
N217   N     0.50867   0.17689   0.04744   0.00000  Uiso   1.00
N218   N     0.50128   0.14264   0.05494   0.00000  Uiso   1.00
C219   C     0.47671   0.11374   1.00658   0.00000  Uiso   1.00
N220   N     0.46052   0.12058   0.94996   0.00000  Uiso   1.00
N221   N     0.46762   0.15460   0.94275   0.00000  Uiso   1.00
loop_
_geom_bond_atom_site_label_1
_geom_bond_atom_site_label_2
_geom_bond_distance
_geom_bond_site_symmetry_2
_ccdc_geom_bond_type
C0     O4      1.285   .     A
C0     O5      1.278   1_554 A
C0     C207    1.468   1_554 S
Ho1    O4      2.193   .     S
Ho1    O6      2.182   .     S
Ho1    O7      2.154   .     S
Ho1    O10     2.178   .     S
Ho1    O17     2.219   .     S
Ho1    O5      2.173   1_554 S
Ho1    O15     2.175   1_554 S
C2     O12     1.284   .     A
C2     O13     1.278   1_556 A
C2     C201    1.467   1_556 S
Ho3    O11     2.215   .     S
Ho3    O12     2.186   .     S
Ho3    O14     2.176   .     S
Ho3    O15     2.164   .     S
Ho3    O16     2.185   .     S
Ho3    O7      2.161   1_556 S
Ho3    O13     2.177   1_556 S
O5     C0      1.278   1_556 A
O5     Ho1     2.173   1_556 S
O6     C8      1.230   .     D
O7     C8      1.399   .     S
O7     Ho3     2.161   1_554 S
C8     C63     1.462   .     S
C9     O14     1.229   .     D
C9     O15     1.405   .     S
C9     C75     1.465   .     S
O10    C19     1.290   .     A
O11    C19     1.301   1_556 A
O13    C2      1.278   1_554 A
O13    Ho3     2.177   1_554 S
O15    Ho1     2.175   1_556 S
O16    C18     1.294   .     A
O17    C18     1.305   1_554 A
C18    O17     1.305   1_556 A
C18    C117    1.461   1_556 S
C19    O11     1.301   1_554 A
C19    C165    1.455   1_554 S
C20    O24     1.285   .     A
C20    C129    1.477   .     S
C20    O25     1.276   1_554 A
Ho21   O24     2.198   .     S
Ho21   O26     2.212   .     S
Ho21   O30     2.184   .     S
Ho21   O25     2.164   1_554 S
Ho21   O27     2.130   1_455 S
Ho21   O35     2.151   1_554 S
Ho21   O37     2.217   1_455 S
C22    O32     1.286   .     A
C22    C153    1.471   .     S
C22    O33     1.276   1_556 A
Ho23   O32     2.193   .     S
Ho23   O34     2.213   .     S
Ho23   O36     2.189   .     S
Ho23   O27     2.144   1_556 S
Ho23   O31     2.224   1_655 S
Ho23   O33     2.159   1_556 S
Ho23   O35     2.124   1_655 S
O25    C20     1.276   1_556 A
O25    Ho21    2.164   1_556 S
O26    C28     1.226   1_455 D
O27    C28     1.381   .     S
O27    Ho21    2.130   1_655 S
O27    Ho23    2.144   1_554 S
C28    O26     1.226   1_655 D
C28    C93     1.460   1_655 S
C29    O35     1.386   .     S
C29    O34     1.226   1_455 D
C29    C81     1.463   1_455 S
O30    C39     1.295   .     A
O31    Ho23    2.224   1_455 S
O31    C39     1.308   1_556 A
O33    C22     1.276   1_554 A
O33    Ho23    2.159   1_554 S
O34    C29     1.226   1_655 D
O35    Ho21    2.151   1_556 S
O35    Ho23    2.124   1_455 S
O36    C38     1.296   .     A
O37    Ho21    2.217   1_655 S
O37    C38     1.306   1_554 A
C38    O37     1.306   1_556 A
C38    C135    1.460   1_556 S
C39    O31     1.308   1_554 A
C39    C183    1.457   1_554 S
C40    O44     1.285   .     A
C40    O45     1.278   1_556 A
C40    C189    1.467   1_556 S
Ho41   O44     2.186   .     S
Ho41   O46     2.177   .     S
Ho41   O50     2.177   .     S
Ho41   O45     2.167   1_556 S
Ho41   O47     2.157   1_565 S
Ho41   O55     2.148   1_556 S
Ho41   O57     2.221   1_565 S
C42    O52     1.286   .     A
C42    O53     1.278   1_554 A
C42    C219    1.467   1_554 S
Ho43   O52     2.192   .     S
Ho43   O54     2.184   .     S
Ho43   O56     2.174   .     S
Ho43   O47     2.161   1_554 S
Ho43   O51     2.227   1_545 S
Ho43   O53     2.164   1_554 S
Ho43   O55     2.149   1_545 S
O45    C40     1.278   1_554 A
O45    Ho41    2.167   1_554 S
O46    C48     1.229   1_565 D
O47    C48     1.399   .     S
O47    Ho41    2.157   1_545 S
O47    Ho43    2.161   1_556 S
C48    C111    1.457   .     S
C48    O46     1.229   1_545 D
C49    O54     1.229   .     D
C49    C99     1.454   .     S
C49    O55     1.393   1_545 S
O50    C59     1.291   .     A
O51    Ho43    2.227   1_565 S
O51    C59     1.307   1_554 A
O53    C42     1.278   1_556 A
O53    Ho43    2.164   1_556 S
O55    Ho41    2.148   1_554 S
O55    Ho43    2.149   1_565 S
O55    C49     1.393   1_565 S
O56    C58     1.289   .     A
O57    Ho41    2.221   1_545 S
O57    C58     1.304   1_556 A
C58    O57     1.304   1_554 A
C58    C147    1.456   1_554 S
C59    O51     1.307   1_556 A
C59    C171    1.461   1_556 S
C60    N61     1.358   .     A
C60    N65     1.358   .     A
C60    C66     1.467   .     S
N61    N62     1.332   .     A
N62    C63     1.356   .     A
C63    N64     1.357   .     A
N64    N65     1.332   .     A
C66    N67     1.358   .     A
C66    N71     1.357   .     A
N67    N68     1.333   .     A
N68    C69     1.359   .     A
C69    N70     1.357   .     A
C69    C72     1.471   .     S
N70    N71     1.332   .     A
C72    N73     1.359   .     A
C72    N77     1.357   .     A
N73    N74     1.333   .     A
N74    C75     1.356   .     A
C75    N76     1.358   .     A
N76    N77     1.332   .     A
C78    N83     1.360   .     A
C78    C84     1.472   .     S
C78    N79     1.357   1_655 A
N79    N80     1.331   .     A
N79    C78     1.357   1_455 A
N80    C81     1.354   1_455 A
C81    N82     1.358   .     A
C81    N80     1.354   1_655 A
C81    C29     1.463   1_655 S
N82    N83     1.334   .     A
C84    N85     1.357   .     A
C84    N89     1.359   1_655 A
N85    N86     1.333   .     A
N86    C87     1.359   .     A
C87    C90     1.473   .     S
C87    N88     1.358   1_655 A
N88    N89     1.333   .     A
N88    C87     1.358   1_455 A
N89    C84     1.359   1_455 A
C90    N95     1.358   .     A
C90    N91     1.360   1_655 A
N91    N92     1.333   .     A
N91    C90     1.360   1_455 A
N92    C93     1.356   .     A
C93    N94     1.355   1_455 A
C93    C28     1.460   1_455 S
N94    N95     1.332   .     A
N94    C93     1.355   1_655 A
C96    N97     1.357   .     A
C96    C102    1.464   .     S
C96    N101    1.358   1_545 A
N97    N98     1.331   .     A
N98    C99     1.356   .     A
C99    N100    1.355   1_545 A
N100   N101    1.332   .     A
N100   C99     1.355   1_565 A
N101   C96     1.358   1_565 A
C102   N107    1.358   .     A
C102   N103    1.357   1_545 A
N103   N104    1.332   .     A
N103   C102    1.357   1_565 A
N104   C105    1.358   1_565 A
C105   N106    1.357   .     A
C105   C108    1.466   .     S
C105   N104    1.358   1_545 A
N106   N107    1.332   .     A
C108   N109    1.358   .     A
C108   N113    1.357   1_545 A
N109   N110    1.333   .     A
N110   C111    1.357   .     A
C111   N112    1.355   1_545 A
N112   N113    1.331   .     A
N112   C111    1.355   1_565 A
N113   C108    1.357   1_565 A
C114   N119    1.357   .     A
C114   C120    1.472   .     S
C114   N115    1.359   1_556 A
N115   N116    1.334   .     A
N115   C114    1.359   1_554 A
N116   C117    1.358   .     A
C117   N118    1.357   1_554 A
C117   C18     1.461   1_554 S
N118   N119    1.332   .     A
N118   C117    1.357   1_556 A
C120   N121    1.358   .     A
C120   N125    1.359   1_556 A
N121   N122    1.332   .     A
N122   C123    1.358   1_556 A
C123   N124    1.358   .     A
C123   C126    1.470   .     S
C123   N122    1.358   1_554 A
N124   N125    1.333   .     A
N125   C120    1.359   1_554 A
C126   N127    1.360   .     A
C126   N131    1.356   1_554 A
N127   N128    1.336   .     A
N128   C129    1.359   .     A
C129   N130    1.359   1_554 A
N130   N131    1.332   .     A
N130   C129    1.359   1_556 A
N131   C126    1.356   1_556 A
C132   N137    1.357   .     A
C132   C138    1.467   .     S
C132   N133    1.358   1_554 A
N133   N134    1.333   .     A
N133   C132    1.358   1_556 A
N134   C135    1.358   1_556 A
C135   N136    1.357   .     A
C135   N134    1.358   1_554 A
C135   C38     1.460   1_554 S
N136   N137    1.332   .     A
C138   N139    1.358   .     A
C138   N143    1.357   1_554 A
N139   N140    1.332   .     A
N140   C141    1.358   1_554 A
C141   N142    1.358   .     A
C141   C144    1.469   .     S
C141   N140    1.358   1_556 A
N142   N143    1.332   .     A
N143   C138    1.357   1_556 A
C144   N145    1.358   .     A
C144   N149    1.357   1_556 A
N145   N146    1.332   .     A
N146   C147    1.356   .     A
C147   N148    1.359   1_556 A
C147   C58     1.456   1_556 S
N148   N149    1.333   .     A
N148   C147    1.359   1_554 A
N149   C144    1.357   1_554 A
C150   N155    1.357   .     A
C150   C156    1.469   .     S
C150   N151    1.359   1_554 A
N151   N152    1.335   .     A
N151   C150    1.359   1_556 A
N152   C153    1.358   .     A
C153   N154    1.359   1_556 A
N154   N155    1.332   .     A
N154   C153    1.359   1_554 A
C156   N157    1.358   .     A
C156   N161    1.358   1_554 A
N157   N158    1.331   .     A
N158   C159    1.357   .     A
C159   C162    1.465   .     S
C159   N160    1.357   1_554 A
N160   N161    1.332   .     A
N160   C159    1.357   1_556 A
N161   C156    1.358   1_556 A
C162   N167    1.355   .     A
C162   N163    1.358   1_554 A
N163   N164    1.333   .     A
N163   C162    1.358   1_556 A
N164   C165    1.357   .     A
C165   N166    1.357   1_556 A
C165   C19     1.455   1_556 S
N166   N167    1.330   .     A
N166   C165    1.357   1_554 A
C168   N173    1.359   .     A
C168   C174    1.473   .     S
C168   N169    1.358   1_556 A
N169   N170    1.332   .     A
N169   C168    1.358   1_554 A
N170   C171    1.357   .     A
C171   N172    1.359   1_554 A
C171   C59     1.461   1_554 S
N172   N173    1.334   .     A
N172   C171    1.359   1_556 A
C174   N175    1.358   .     A
C174   N179    1.358   1_556 A
N175   N176    1.334   .     A
N176   C177    1.359   .     A
C177   C180    1.473   .     S
C177   N178    1.358   1_556 A
N178   N179    1.333   .     A
N178   C177    1.358   1_554 A
N179   C174    1.358   1_554 A
C180   N185    1.359   .     A
C180   N181    1.358   1_556 A
N181   N182    1.332   .     A
N181   C180    1.358   1_554 A
N182   C183    1.357   1_554 A
C183   N184    1.356   .     A
C183   N182    1.357   1_556 A
C183   C39     1.457   1_556 S
N184   N185    1.333   .     A
C186   N187    1.357   .     A
C186   C192    1.467   .     S
C186   N191    1.358   1_554 A
N187   N188    1.331   .     A
N188   C189    1.357   .     A
C189   N190    1.358   1_554 A
C189   C40     1.467   1_554 S
N190   N191    1.334   .     A
N190   C189    1.358   1_556 A
N191   C186    1.358   1_556 A
C192   N197    1.358   .     A
C192   N193    1.358   1_554 A
N193   N194    1.332   .     A
N193   C192    1.358   1_556 A
N194   C195    1.358   1_556 A
C195   N196    1.357   .     A
C195   C198    1.466   .     S
C195   N194    1.358   1_554 A
N196   N197    1.331   .     A
C198   N199    1.358   .     A
C198   N203    1.357   1_554 A
N199   N200    1.333   .     A
N200   C201    1.358   .     A
C201   N202    1.358   1_554 A
C201   C2      1.467   1_554 S
N202   N203    1.332   .     A
N202   C201    1.358   1_556 A
N203   C198    1.357   1_556 A
C204   N209    1.357   .     A
C204   C210    1.470   .     S
C204   N205    1.359   1_556 A
N205   N206    1.335   .     A
N205   C204    1.359   1_554 A
N206   C207    1.360   1_554 A
C207   N208    1.356   .     A
C207   N206    1.360   1_556 A
C207   C0      1.468   1_556 S
N208   N209    1.332   .     A
C210   N211    1.357   .     A
C210   N215    1.359   1_556 A
N211   N212    1.330   .     A
N212   C213    1.357   .     A
C213   C216    1.469   .     S
C213   N214    1.358   1_556 A
N214   N215    1.334   .     A
N214   C213    1.358   1_554 A
N215   C210    1.359   1_554 A
C216   N221    1.356   .     A
C216   N217    1.360   1_556 A
N217   N218    1.336   .     A
N217   C216    1.360   1_554 A
N218   C219    1.360   1_554 A
C219   N220    1.355   .     A
C219   N218    1.360   1_556 A
C219   C42     1.467   1_556 S
N220   N221    1.330   .     A
