data_kag+N144+E59
_audit_creation_date              2025-01-21
_audit_creation_method            'Materials Studio'
_symmetry_space_group_name_H-M    'P1'
_symmetry_Int_Tables_number       1
_symmetry_cell_setting            triclinic
loop_
_symmetry_equiv_pos_as_xyz
  x,y,z
_cell_length_a                    44.5607
_cell_length_b                    43.6574
_cell_length_c                    21.4105
_cell_angle_alpha                 92.9899
_cell_angle_beta                  92.3628
_cell_angle_gamma                 120.1159
loop_
_atom_site_label
_atom_site_type_symbol
_atom_site_fract_x
_atom_site_fract_y
_atom_site_fract_z
_atom_site_U_iso_or_equiv
_atom_site_adp_type
_atom_site_occupancy
C0     C     0.65164   0.57525   0.97391   0.00000  Uiso   1.00
Er1    Er    0.52283   0.53309   0.00529   0.00000  Uiso   1.00
Er2    Er    0.58359   0.56074   0.02684   0.00000  Uiso   1.00
C3     C     0.56142   0.60584  -0.04357   0.00000  Uiso   1.00
O4     O     0.58345   0.53540   0.93474   0.00000  Uiso   1.00
C5     C     0.54997   0.57806   0.13320   0.00000  Uiso   1.00
C6     C     0.54492   0.48781   0.07558   0.00000  Uiso   1.00
C7     C     0.46105   0.51740   1.04027   0.00000  Uiso   1.00
O8     O     0.67233   0.58170   0.93397   0.00000  Uiso   1.00
O9     O     0.61593   0.55417   0.95650   0.00000  Uiso   1.00
O10    O     0.57544   0.51401   0.07157   0.00000  Uiso   1.00
O11    O     0.51831   0.48767   0.05090   0.00000  Uiso   1.00
O12    O     0.57909   0.58358   0.11654   0.00000  Uiso   1.00
O13    O     0.52241   0.55819   0.09734   0.00000  Uiso   1.00
C14    C     0.55576   0.51604   0.89836   0.00000  Uiso   1.00
O15    O     0.52669   0.51049   0.91522   0.00000  Uiso   1.00
O16    O     0.58793   0.60564  -0.01938   0.00000  Uiso   1.00
O17    O     0.53070   0.57996  -0.03907   0.00000  Uiso   1.00
O18    O     0.46587   0.50632   0.98820   0.00000  Uiso   1.00
O19    O     0.48945   0.53809   1.07254   0.00000  Uiso   1.00
C20    C     0.95410   0.41692   0.97532   0.00000  Uiso   1.00
Er21   Er    0.04520   0.54239  -0.00245   0.00000  Uiso   1.00
Er22   Er    1.02424   0.48163   0.00544   0.00000  Uiso   1.00
C23    C     0.10007   0.52246  -0.02183   0.00000  Uiso   1.00
O24    O     0.00920   0.47297   0.90531   0.00000  Uiso   1.00
C25    C     0.05920   0.52298   0.12665   0.00000  Uiso   1.00
C26    C     0.97076   0.50655   0.02997   0.00000  Uiso   1.00
C27    C     0.06246   0.59897   0.93677   0.00000  Uiso   1.00
O28    O     0.96853   0.39982   0.96575   0.00000  Uiso   1.00
O29    O     0.96865   0.44610   1.02066   0.00000  Uiso   1.00
O30    O     0.97586   0.48012   0.02913   0.00000  Uiso   1.00
O31    O    -0.00488   0.53683   0.01756   0.00000  Uiso   1.00
O32    O     0.04120   0.49093   0.10391   0.00000  Uiso   1.00
O33    O     0.06114   0.54809   0.09630   0.00000  Uiso   1.00
C34    C     0.01469   0.49830   0.87210   0.00000  Uiso   1.00
O35    O     0.02863   0.53013   0.89744   0.00000  Uiso   1.00
O36    O     0.07539   0.49174  -0.01351   0.00000  Uiso   1.00
O37    O     0.09516   0.54863  -0.02187   0.00000  Uiso   1.00
O38    O     0.04606   0.56745   0.91056   0.00000  Uiso   1.00
O39    O     0.06782   0.59969   0.99520   0.00000  Uiso   1.00
C40    C     0.46030   0.08520   1.06671   0.00000  Uiso   1.00
Er41   Er    0.50198   1.00128  -0.01201   0.00000  Uiso   1.00
Er42   Er    0.49858   0.04543   0.03718   0.00000  Uiso   1.00
C43    C     0.42784   0.97970   0.00349   0.00000  Uiso   1.00
O44    O     0.49662   0.06524   0.94757   0.00000  Uiso   1.00
C45    C     0.50681  -0.00095   0.12812   0.00000  Uiso   1.00
C46    C     0.57303   0.06502   0.02635   0.00000  Uiso   1.00
C47    C     0.50472   0.94853   0.92182   0.00000  Uiso   1.00
O48    O     0.43713   0.06934   1.10128   0.00000  Uiso   1.00
O49    O     0.49323   0.08969   1.08153   0.00000  Uiso   1.00
O50    O     0.55506   0.07769   0.04836   0.00000  Uiso   1.00
O51    O     0.55805   0.03555  -0.00708   0.00000  Uiso   1.00
O52    O     0.50048   0.02445   0.12646   0.00000  Uiso   1.00
O53    O     0.50928  -0.01581   0.07745   0.00000  Uiso   1.00
C54    C     0.49126   0.04611   0.89730   0.00000  Uiso   1.00
O55    O     0.49335   0.01820   0.89875   0.00000  Uiso   1.00
O56    O     0.44230   0.01175   0.02637   0.00000  Uiso   1.00
O57    O     0.44627   0.96669  -0.01416   0.00000  Uiso   1.00
O58    O     0.52970   0.97871   0.93636   0.00000  Uiso   1.00
O59    O     0.47856   0.94563   0.94546   0.00000  Uiso   1.00
C60    C     0.56959   0.53753   0.67661   0.00000  Uiso   1.00
C61    C     0.58668   0.54831   0.56923   0.00000  Uiso   1.00
H62    H     0.48183   0.52295   0.37138   0.00000  Uiso   1.00
C63    C     0.53228   0.54295   0.59628   0.00000  Uiso   1.00
C64    C     0.53896   0.53774   0.65838   0.00000  Uiso   1.00
N65    N     0.55230   0.58126   0.24905   0.00000  Uiso   1.00
N66    N     0.55229   0.51418   0.78262   0.00000  Uiso   1.00
O67    O     0.49734   0.55889   0.27563   0.00000  Uiso   1.00
O68    O     0.60783   0.54061   0.75812   0.00000  Uiso   1.00
H69    H     0.52211   0.59554   0.18996   0.00000  Uiso   1.00
H70    H     0.56792   0.62511   0.19481   0.00000  Uiso   1.00
H71    H     0.49348   0.51540   0.48003   0.00000  Uiso   1.00
H72    H     0.59080   0.59960   0.36189   0.00000  Uiso   1.00
H73    H     0.60226   0.59221   0.47035   0.00000  Uiso   1.00
H74    H     0.57684   0.58439   0.25913   0.00000  Uiso   1.00
H75    H     0.61720   0.54316   0.64291   0.00000  Uiso   1.00
H76    H     0.58374   0.50015   0.83885   0.00000  Uiso   1.00
H77    H     0.53815   0.46977   0.83504   0.00000  Uiso   1.00
H78    H     0.60534   0.55168   0.53554   0.00000  Uiso   1.00
H79    H     0.52026   0.53445   0.69178   0.00000  Uiso   1.00
H80    H     0.50868   0.54338   0.58415   0.00000  Uiso   1.00
H81    H     0.52665   0.50756   0.77087   0.00000  Uiso   1.00
C82    C     0.50833   0.53806   0.39221   0.00000  Uiso   1.00
C83    C     0.52717   0.56684   0.29133   0.00000  Uiso   1.00
C84    C     0.54759   0.59655   0.19244   0.00000  Uiso   1.00
C85    C     0.54885   0.55302   0.48418   0.00000  Uiso   1.00
C86    C     0.53541   0.56123   0.35676   0.00000  Uiso   1.00
C87    C     0.51495   0.53394   0.45483   0.00000  Uiso   1.00
C88    C     0.56932   0.58053   0.38630   0.00000  Uiso   1.00
C89    C     0.57593   0.57644   0.44902   0.00000  Uiso   1.00
C90    C     0.59338   0.54321   0.63105   0.00000  Uiso   1.00
C91    C     0.57761   0.53123   0.74180   0.00000  Uiso   1.00
C92    C     0.55799   0.49850   0.83792   0.00000  Uiso   1.00
C93    C     0.55603   0.54822   0.55078   0.00000  Uiso   1.00
C94    C     0.05165   0.50925   0.34785   0.00000  Uiso   1.00
C95    C     0.05289   0.49830   0.45793   0.00000  Uiso   1.00
H96    H     0.95567   0.51208   0.61052   0.00000  Uiso   1.00
C97    C     0.02407   0.52939   0.42204   0.00000  Uiso   1.00
C98    C     0.03263   0.52625   0.36107   0.00000  Uiso   1.00
N99    N     0.01392   0.52361   0.77424   0.00000  Uiso   1.00
N100   N     0.06480   0.52917   0.24057   0.00000  Uiso   1.00
O101   O     0.96507   0.52055   0.72921   0.00000  Uiso   1.00
O102   O     0.06780   0.48215   0.27012   0.00000  Uiso   1.00
H103   H     0.97682   0.47127   0.79453   0.00000  Uiso   1.00
H104   H     0.01969   0.47894   0.78112   0.00000  Uiso   1.00
H105   H     0.97219   0.50708   0.50514   0.00000  Uiso   1.00
H106   H     0.05572   0.53201   0.68736   0.00000  Uiso   1.00
H107   H     0.07273   0.52873   0.58201   0.00000  Uiso   1.00
H108   H     0.03942   0.54502   0.78143   0.00000  Uiso   1.00
H109   H     0.07669   0.48250   0.38852   0.00000  Uiso   1.00
H110   H     0.09525   0.51564   0.18256   0.00000  Uiso   1.00
H111   H     0.10449   0.56032   0.18361   0.00000  Uiso   1.00
H112   H     0.06052   0.48678   0.49451   0.00000  Uiso   1.00
H113   H     1.02373   0.53674   0.32472   0.00000  Uiso   1.00
H114   H     1.00983   0.54305   0.43093   0.00000  Uiso   1.00
H115   H     0.05912   0.54925   0.25096   0.00000  Uiso   1.00
C116   C     0.98139   0.51607   0.60491   0.00000  Uiso   1.00
C117   C     0.99302   0.52276   0.72131   0.00000  Uiso   1.00
C118   C     0.00515   0.49080   0.80294   0.00000  Uiso   1.00
C119   C     0.02389   0.51795   0.53527   0.00000  Uiso   1.00
C120   C     0.00433   0.52263   0.65739   0.00000  Uiso   1.00
C121   C     0.99094   0.51345   0.54455   0.00000  Uiso   1.00
C122   C     0.03735   0.52712   0.64814   0.00000  Uiso   1.00
C123   C     0.04706   0.52492   0.58768   0.00000  Uiso   1.00
C124   C     0.06173   0.49543   0.39705   0.00000  Uiso   1.00
C125   C     0.06145   0.50577   0.28370   0.00000  Uiso   1.00
C126   C     0.08291   0.53236   0.18410   0.00000  Uiso   1.00
C127   C     0.03389   0.51528   0.47102   0.00000  Uiso   1.00
C128   C     0.47258   0.01156   0.67441   0.00000  Uiso   1.00
C129   C     0.44937  -0.00424   0.56523   0.00000  Uiso   1.00
H130   H     0.54460   0.07620   0.38112   0.00000  Uiso   1.00
C131   C     0.51166   0.03016   0.59067   0.00000  Uiso   1.00
C132   C     0.50642   0.02857   0.65443   0.00000  Uiso   1.00
N133   N     0.49890  -0.00229   0.24070   0.00000  Uiso   1.00
N134   N     0.49050   0.04323   0.78367   0.00000  Uiso   1.00
O135   O     0.54998   0.04367   0.28143   0.00000  Uiso   1.00
O136   O     0.44035   0.98914   0.76094   0.00000  Uiso   1.00
H137   H     0.54154  -0.00217   0.19799   0.00000  Uiso   1.00
H138   H     0.50043  -0.04228   0.18459   0.00000  Uiso   1.00
H139   H     0.52909   0.07306   0.48958   0.00000  Uiso   1.00
H140   H     0.46670  -0.03475   0.34110   0.00000  Uiso   1.00
H141   H     0.45138  -0.03765   0.44916   0.00000  Uiso   1.00
H142   H     0.47196  -0.01692   0.24315   0.00000  Uiso   1.00
H143   H     0.41773   0.98074   0.64345   0.00000  Uiso   1.00
H144   H     0.45005   0.04108   0.83616   0.00000  Uiso   1.00
H145   H     0.48902   0.08380   0.83927   0.00000  Uiso   1.00
H146   H     0.42696   0.98310   0.53136   0.00000  Uiso   1.00
H147   H     0.52902   0.04070   0.68770   0.00000  Uiso   1.00
H148   H     0.53807   0.04349   0.57667   0.00000  Uiso   1.00
H149   H     0.51582   0.06039   0.77205   0.00000  Uiso   1.00
C150   C     0.52383   0.05135   0.39512   0.00000  Uiso   1.00
C151   C     0.51980   0.02190   0.28922   0.00000  Uiso   1.00
C152   C     0.51309  -0.01286   0.18889   0.00000  Uiso   1.00
C153   C     0.48936   0.01731   0.47791   0.00000  Uiso   1.00
C154   C     0.50678   0.02116   0.35212   0.00000  Uiso   1.00
C155   C     0.51513   0.04948   0.45726   0.00000  Uiso   1.00
C156   C     0.47986  -0.01063   0.37217   0.00000  Uiso   1.00
C157   C     0.47116  -0.01246   0.43439   0.00000  Uiso   1.00
C158   C     0.44410   0.99431   0.62923   0.00000  Uiso   1.00
C159   C     0.46661   0.01308   0.74161   0.00000  Uiso   1.00
C160   C     0.47905   0.05470   0.83835   0.00000  Uiso   1.00
C161   C     0.48322   0.01445   0.54542   0.00000  Uiso   1.00
C162   C     0.19147   0.49849   1.01869   0.00000  Uiso   1.00
C163   C     0.23657   0.48402   1.00234   0.00000  Uiso   1.00
H164   H     0.37215   0.57345   0.12053   0.00000  Uiso   1.00
C165   C     0.25270   0.54404   0.03234   0.00000  Uiso   1.00
C166   C     0.21767   0.53405   0.03315   0.00000  Uiso   1.00
N167   N     0.40622   0.51702   1.02667   0.00000  Uiso   1.00
N168   N     0.14539   0.51541   0.02552   0.00000  Uiso   1.00
O169   O     0.42345   0.56797   1.08528   0.00000  Uiso   1.00
O170   O     0.13156   0.45734   1.01172   0.00000  Uiso   1.00
H171   H     0.43016   0.51635   1.11425   0.00000  Uiso   1.00
H172   H     0.41182   0.47629   1.06409   0.00000  Uiso   1.00
H173   H     0.31300   0.56263   0.10859   0.00000  Uiso   1.00
H174   H     0.35509   0.51361   0.94208   0.00000  Uiso   1.00
H175   H     0.29575   0.50249   0.93111   0.00000  Uiso   1.00
H176   H     0.38998   0.49900   0.98966   0.00000  Uiso   1.00
H177   H     0.18195   0.44543   0.99211   0.00000  Uiso   1.00
H178   H     0.13391   0.51161   0.92718   0.00000  Uiso   1.00
H179   H     0.15443   0.55591   0.96644   0.00000  Uiso   1.00
H180   H     0.24391   0.46425   0.99153   0.00000  Uiso   1.00
H181   H     0.21124   0.55427   0.04563   0.00000  Uiso   1.00
H182   H     0.27211   0.57170   0.04426   0.00000  Uiso   1.00
H183   H     0.14805   0.52801   0.07003   0.00000  Uiso   1.00
C184   C     0.35608   0.55855   0.07822   0.00000  Uiso   1.00
C185   C     0.40133   0.54419   1.04858   0.00000  Uiso   1.00
C186   C     0.42641   0.50571   1.06443   0.00000  Uiso   1.00
C187   C     0.29955   0.53075   1.01981   0.00000  Uiso   1.00
C188   C     0.36812   0.54336   1.03349   0.00000  Uiso   1.00
C189   C     0.32213   0.55225   0.07155   0.00000  Uiso   1.00
C190   C     0.34641   0.52441   0.97905   0.00000  Uiso   1.00
C191   C     0.31238   0.51804   0.97250   0.00000  Uiso   1.00
C192   C     0.20128   0.47323   1.00329   0.00000  Uiso   1.00
C193   C     0.15452   0.48845   1.01883   0.00000  Uiso   1.00
C194   C     0.13513   0.52744  -0.02934   0.00000  Uiso   1.00
C195   C     0.26225   0.51993   1.01730   0.00000  Uiso   1.00
C196   C     0.68039   0.17995   0.03739   0.00000  Uiso   1.00
C197   C     0.73770   0.23254   0.05892   0.00000  Uiso   1.00
H198   H     0.79393   0.33873   0.88314   0.00000  Uiso   1.00
C199   C     0.70973   0.21705   0.95355   0.00000  Uiso   1.00
C200   C     0.68085   0.18755   0.97426   0.00000  Uiso   1.00
N201   N     0.89213   0.37645   0.95353   0.00000  Uiso   1.00
N202   N     0.63150   0.11709   0.02137   0.00000  Uiso   1.00
O203   O     0.85876   0.37303   0.86909   0.00000  Uiso   1.00
O204   O     0.64631   0.14782   0.11595   0.00000  Uiso   1.00
H205   H     0.92634   0.40589   0.88558   0.00000  Uiso   1.00
H206   H     0.91703   0.43104   0.94292   0.00000  Uiso   1.00
H207   H     0.74187   0.28699   0.91417   0.00000  Uiso   1.00
H208   H     0.85807   0.31058   0.99536   0.00000  Uiso   1.00
H209   H     0.80613   0.25947   0.02682   0.00000  Uiso   1.00
H210   H     0.89324   0.36840   0.99829   0.00000  Uiso   1.00
H211   H     0.70948   0.19821   0.12861   0.00000  Uiso   1.00
H212   H     0.61443   0.08398   0.09770   0.00000  Uiso   1.00
H213   H     0.62122   0.06488   0.02808   0.00000  Uiso   1.00
H214   H     0.75937   0.24985   0.09252   0.00000  Uiso   1.00
H215   H     0.65904   0.17096   0.94066   0.00000  Uiso   1.00
H216   H     0.70979   0.22191   0.90442   0.00000  Uiso   1.00
H217   H     0.63510   0.11702   0.97354   0.00000  Uiso   1.00
C218   C     0.79688   0.32145   0.91422   0.00000  Uiso   1.00
C219   C     0.86113   0.36062   0.91767   0.00000  Uiso   1.00
C220   C     0.92213   0.40875   0.93594   0.00000  Uiso   1.00
C221   C     0.77003   0.26964   0.97371   0.00000  Uiso   1.00
C222   C     0.83009   0.32909   0.93722   0.00000  Uiso   1.00
C223   C     0.76713   0.29191   0.93198   0.00000  Uiso   1.00
C224   C     0.83300   0.30625   0.97786   0.00000  Uiso   1.00
C225   C     0.80323   0.27684   0.99587   0.00000  Uiso   1.00
C226   C     0.70894   0.20316   0.07961   0.00000  Uiso   1.00
C227   C     0.65135   0.14757   0.06038   0.00000  Uiso   1.00
C228   C     0.61116   0.08222   0.04557   0.00000  Uiso   1.00
C229   C     0.73863   0.23942   0.99555   0.00000  Uiso   1.00
C230   C     0.75066   0.58925   1.06282   0.00000  Uiso   1.00
C231   C     0.81016   0.60066   0.07986   0.00000  Uiso   1.00
H232   H     0.84831   0.51878   0.91448   0.00000  Uiso   1.00
C233   C     0.76542   0.54474   1.02749   0.00000  Uiso   1.00
C234   C     0.74089   0.55556   1.03392   0.00000  Uiso   1.00
N235   N     0.92717   0.52711   0.03310   0.00000  Uiso   1.00
N236   N     0.69027   0.57941   1.06039   0.00000  Uiso   1.00
O237   O     0.88798   0.49499  -0.04753   0.00000  Uiso   1.00
O238   O     0.73688   0.63443   1.06465   0.00000  Uiso   1.00
H239   H     0.93599   0.49861   0.10122   0.00000  Uiso   1.00
H240   H     0.91572   0.47325   1.02835   0.00000  Uiso   1.00
H241   H     0.80708   0.53835   0.93823   0.00000  Uiso   1.00
H242   H     0.89594   0.55442   0.10381   0.00000  Uiso   1.00
H243   H     0.85497   0.57414   0.12686   0.00000  Uiso   1.00
H244   H     0.93890   0.55061   0.06254   0.00000  Uiso   1.00
H245   H     0.79402   0.63786   0.10798   0.00000  Uiso   1.00
H246   H     0.67593   0.61866   1.04464   0.00000  Uiso   1.00
H247   H     0.64267   0.57800   1.07135   0.00000  Uiso   1.00
H248   H     0.83696   0.61890   0.09684   0.00000  Uiso   1.00
H249   H     0.71465   0.53803   1.01339   0.00000  Uiso   1.00
H250   H     0.75697   0.51875   1.00441   0.00000  Uiso   1.00
H251   H     0.68058   0.55251   1.06606   0.00000  Uiso   1.00
C252   C     0.85017   0.53079   0.96119   0.00000  Uiso   1.00
C253   C     0.89763   0.51827  -0.00468   0.00000  Uiso   1.00
C254   C     0.93601   0.50008   0.04936   0.00000  Uiso   1.00
C255   C     0.82715   0.55714   1.03476   0.00000  Uiso   1.00
C256   C     0.87567   0.53476   1.00737   0.00000  Uiso   1.00
C257   C     0.82633   0.54182   0.97478   0.00000  Uiso   1.00
C258   C     0.87718   0.55122   0.06671   0.00000  Uiso   1.00
C259   C     0.85342   0.56243   0.08015   0.00000  Uiso   1.00
C260   C     0.78556   0.61155   1.08621   0.00000  Uiso   1.00
C261   C     0.72562   0.60249   1.06338   0.00000  Uiso   1.00
C262   C     0.66463   0.58939   1.04075   0.00000  Uiso   1.00
C263   C     0.80057   0.56742   1.04888   0.00000  Uiso   1.00
C264   C     0.15889   0.71864   0.96566   0.00000  Uiso   1.00
C265   C     0.20414   0.78105   0.97529   0.00000  Uiso   1.00
H266   H     0.34675   0.82439  -0.03470   0.00000  Uiso   1.00
C267   C     0.21862   0.73661   1.00203   0.00000  Uiso   1.00
C268   C     0.18381   0.70987   0.98673   0.00000  Uiso   1.00
N269   N     0.37539   0.92611   0.02610   0.00000  Uiso   1.00
N270   N     0.11135   0.65770   0.92491   0.00000  Uiso   1.00
O271   O     0.38144   0.89205  -0.04837   0.00000  Uiso   1.00
O272   O     0.09973   0.70004   0.95810   0.00000  Uiso   1.00
H273   H     0.38229   0.95161  -0.05862   0.00000  Uiso   1.00
H274   H     0.37759   0.97433   1.00911   0.00000  Uiso   1.00
H275   H     0.28821   0.77257   0.96451   0.00000  Uiso   1.00
H276   H     0.31073   0.88951   0.05594   0.00000  Uiso   1.00
H277   H     0.25345   0.83795   0.05790   0.00000  Uiso   1.00
H278   H     0.36788   0.92752   1.07124   0.00000  Uiso   1.00
H279   H     0.15122   0.76224   0.94382   0.00000  Uiso   1.00
H280   H     0.07393   0.62454   0.85147   0.00000  Uiso   1.00
H281   H     0.05738   0.64229   0.90936   0.00000  Uiso   1.00
H282   H     0.21149   0.80832   0.96888   0.00000  Uiso   1.00
H283   H     0.17645   0.68258   0.99260   0.00000  Uiso   1.00
H284   H     0.23728   0.72937   1.01892   0.00000  Uiso   1.00
H285   H     0.13002   0.65032   0.91810   0.00000  Uiso   1.00
C286   C     0.32671   0.82746  -0.01318   0.00000  Uiso   1.00
C287   C     0.36534   0.89376  -0.00484   0.00000  Uiso   1.00
C288   C     0.38932   0.95831  -0.00714   0.00000  Uiso   1.00
C289   C     0.26599   0.80135   1.00964   0.00000  Uiso   1.00
C290   C     0.33345   0.86124   0.01017   0.00000  Uiso   1.00
C291   C     0.29326   0.79774  -0.01332   0.00000  Uiso   1.00
C292   C     0.30688   0.86403   0.03828   0.00000  Uiso   1.00
C293   C     0.27367   0.83442   0.03842   0.00000  Uiso   1.00
C294   C     0.16959   0.75457   0.96044   0.00000  Uiso   1.00
C295   C     0.12155   0.69145   0.95005   0.00000  Uiso   1.00
C296   C     0.07512   0.63163   0.90250   0.00000  Uiso   1.00
C297   C     0.22910   0.77251   0.99645   0.00000  Uiso   1.00
C298   C     0.55865   0.71278  -0.01105   0.00000  Uiso   1.00
C299   C     0.57498   0.77484  -0.01485   0.00000  Uiso   1.00
H300   H     0.48070   0.79761   0.83288   0.00000  Uiso   1.00
C301   C     0.51425   0.72888   0.97202   0.00000  Uiso   1.00
C302   C     0.52345   0.70310   0.98075   0.00000  Uiso   1.00
N303   N     0.51044   0.89541   0.90645   0.00000  Uiso   1.00
N304   N     0.55080   0.65504  -0.05366   0.00000  Uiso   1.00
O305   O     0.50191   0.86351   0.81494   0.00000  Uiso   1.00
O306   O     0.59670   0.69221   0.01313   0.00000  Uiso   1.00
H307   H     0.52633   0.93578   0.84433   0.00000  Uiso   1.00
H308   H     0.48015   0.90820   0.84657   0.00000  Uiso   1.00
H309   H     0.49397   0.75463   0.87445   0.00000  Uiso   1.00
H310   H     0.55316   0.87777   0.97492   0.00000  Uiso   1.00
H311   H     0.56596   0.83432   0.01755   0.00000  Uiso   1.00
H312   H     0.51518   0.89803   0.95517   0.00000  Uiso   1.00
H313   H     0.61148   0.75727   0.00090   0.00000  Uiso   1.00
H314   H     0.59529   0.65433  -0.08361   0.00000  Uiso   1.00
H315   H     0.55560   0.62532  -0.12944   0.00000  Uiso   1.00
H316   H     0.59545   0.80231  -0.01499   0.00000  Uiso   1.00
H317   H     0.50299   0.67558   0.97920   0.00000  Uiso   1.00
H318   H     0.48700   0.72055   0.96339   0.00000  Uiso   1.00
H319   H     0.52625   0.64798   0.92599   0.00000  Uiso   1.00
C320   C     0.49913   0.80594   0.87357   0.00000  Uiso   1.00
C321   C     0.50903   0.86733   0.87158   0.00000  Uiso   1.00
C322   C     0.50519   0.92177   0.87591   0.00000  Uiso   1.00
C323   C     0.53062   0.79091   0.94982   0.00000  Uiso   1.00
C324   C     0.51559   0.84103   0.90094   0.00000  Uiso   1.00
C325   C     0.50644   0.78118   0.89782   0.00000  Uiso   1.00
C326   C     0.53948   0.85078   0.95353   0.00000  Uiso   1.00
C327   C     0.54704   0.82597   0.97763   0.00000  Uiso   1.00
C328   C     0.58417   0.74903  -0.00590   0.00000  Uiso   1.00
C329   C     0.56947   0.68578  -0.01497   0.00000  Uiso   1.00
C330   C     0.56696   0.63596  -0.08063   0.00000  Uiso   1.00
C331   C     0.53999   0.76483   0.97142   0.00000  Uiso   1.00
C332   C     0.48737   0.19615   0.97002   0.00000  Uiso   1.00
C333   C     0.48865   0.24870   0.93262   0.00000  Uiso   1.00
H334   H     0.59337   0.38661   0.05409   0.00000  Uiso   1.00
C335   C     0.52238   0.25407   1.02823   0.00000  Uiso   1.00
C336   C     0.51079   0.21772   1.02090   0.00000  Uiso   1.00
N337   N     0.52980   0.42556   0.07267   0.00000  Uiso   1.00
N338   N     0.47091   0.13816   1.01396   0.00000  Uiso   1.00
O339   O     0.58441   0.44025   0.05383   0.00000  Uiso   1.00
O340   O     0.46333   0.14147   0.91067   0.00000  Uiso   1.00
H341   H     0.52018   0.45284   0.14651   0.00000  Uiso   1.00
H342   H     0.56481   0.46596   0.14180   0.00000  Uiso   1.00
H343   H     0.57595   0.32486   0.02606   0.00000  Uiso   1.00
H344   H     0.49065   0.36470   0.99085   0.00000  Uiso   1.00
H345   H     0.47290   0.30253   0.96492   0.00000  Uiso   1.00
H346   H     0.50331   0.40660   1.06835   0.00000  Uiso   1.00
H347   H     0.45945   0.19657   0.88487   0.00000  Uiso   1.00
H348   H     0.46043   0.08949   0.96687   0.00000  Uiso   1.00
H349   H     0.42434   0.08875   1.00110   0.00000  Uiso   1.00
H350   H     0.48000   0.26022   0.89763   0.00000  Uiso   1.00
H351   H     0.52041   0.20674   1.05520   0.00000  Uiso   1.00
H352   H     0.53959   0.26961   1.06902   0.00000  Uiso   1.00
H353   H     0.47731   0.15111   1.05899   0.00000  Uiso   1.00
C354   C     0.56708   0.36863   0.03400   0.00000  Uiso   1.00
C355   C     0.55364   0.41737   0.05048   0.00000  Uiso   1.00
C356   C     0.54029   0.45799   0.11299   0.00000  Uiso   1.00
C357   C     0.52280   0.30851   0.99448   0.00000  Uiso   1.00
C358   C     0.54319   0.38049   0.02653   0.00000  Uiso   1.00
C359   C     0.55700   0.33314   0.01841   0.00000  Uiso   1.00
C360   C     0.50945   0.35634  -0.00050   0.00000  Uiso   1.00
C361   C     0.49939   0.32074   0.98360   0.00000  Uiso   1.00
C362   C     0.47705   0.21228   0.92521   0.00000  Uiso   1.00
C363   C     0.47345   0.15706   0.96295   0.00000  Uiso   1.00
C364   C     0.45280   0.09920   1.00857   0.00000  Uiso   1.00
C365   C     0.51123   0.27000   0.98459   0.00000  Uiso   1.00
loop_
_geom_bond_atom_site_label_1
_geom_bond_atom_site_label_2
_geom_bond_distance
_geom_bond_site_symmetry_2
_ccdc_geom_bond_type
C0     O8      1.221   .     D
C0     O9      1.401   .     S
C0     C262    1.498   .     S
Er1    O11     2.178   .     S
Er1    O13     2.210   .     S
Er1    O17     2.173   .     S
Er1    O15     2.173   1_554 S
Er1    O18     2.201   1_554 S
Er1    O19     2.192   1_554 S
Er2    O10     2.168   .     S
Er2    O12     2.181   .     S
Er2    O16     2.167   .     S
Er2    O4      2.208   1_554 S
Er2    O9      2.231   1_554 S
C3     O16     1.274   .     A
C3     O17     1.277   .     A
C3     C330    1.489   .     S
O4     C14     1.284   .     A
O4     Er2     2.208   1_556 S
C5     O12     1.266   .     A
C5     O13     1.278   .     A
C5     C84     1.504   .     S
C6     O10     1.274   .     A
C6     O11     1.275   .     A
C6     C356    1.494   .     S
C7     O18     1.261   .     A
C7     O19     1.269   .     A
C7     C186    1.488   .     S
O9     Er2     2.231   1_556 S
C14    O15     1.265   .     A
C14    C92     1.502   .     S
O15    Er1     2.173   1_556 S
O18    Er1     2.201   1_556 S
O19    Er1     2.192   1_556 S
C20    O28     1.221   .     D
C20    O29     1.406   .     S
C20    C220    1.493   .     S
Er21   O31     2.184   .     S
Er21   O33     2.164   .     S
Er21   O37     2.164   .     S
Er21   O35     2.186   1_554 S
Er21   O38     2.201   1_554 S
Er21   O39     2.182   1_554 S
Er22   O30     2.205   .     S
Er22   O24     2.175   1_654 S
Er22   O29     2.217   1_554 S
Er22   O32     2.157   1_655 S
Er22   O36     2.154   1_655 S
C23    O36     1.265   .     A
C23    O37     1.267   .     A
C23    C194    1.483   .     S
O24    C34     1.270   .     A
O24    Er22    2.175   1_456 S
C25    O32     1.268   .     A
C25    O33     1.271   .     A
C25    C126    1.484   .     S
C26    O30     1.282   .     A
C26    C254    1.509   .     S
C26    O31     1.272   1_655 A
C27    O38     1.272   .     A
C27    O39     1.260   .     A
C27    C296    1.492   .     S
O29    Er22    2.217   1_556 S
O31    C26     1.272   1_455 A
O32    Er22    2.157   1_455 S
C34    O35     1.280   .     A
C34    C118    1.496   .     S
O35    Er21    2.186   1_556 S
O36    Er22    2.154   1_455 S
O38    Er21    2.201   1_556 S
O39    Er21    2.182   1_556 S
C40    O48     1.221   .     D
C40    O49     1.399   .     S
C40    C364    1.512   .     S
Er41   O57     2.161   .     S
Er41   O51     2.168   1_565 S
Er41   O53     2.162   1_565 S
Er41   O55     2.172   1_564 S
Er41   O58     2.222   1_554 S
Er41   O59     2.229   1_554 S
Er42   O50     2.175   .     S
Er42   O52     2.179   .     S
Er42   O56     2.173   .     S
Er42   O44     2.161   1_554 S
Er42   O49     2.232   1_554 S
C43    O57     1.269   .     A
C43    C288    1.486   .     S
C43    O56     1.269   1_565 A
O44    C54     1.264   .     A
O44    Er42    2.161   1_556 S
C45    O52     1.276   .     A
C45    O53     1.272   .     A
C45    C152    1.493   .     S
C46    O50     1.272   .     A
C46    O51     1.271   .     A
C46    C228    1.500   .     S
C47    O58     1.236   .     A
C47    O59     1.240   .     A
C47    C322    1.496   .     S
O49    Er42    2.232   1_556 S
O51    Er41    2.168   1_545 S
O53    Er41    2.162   1_545 S
C54    O55     1.269   .     A
C54    C160    1.493   .     S
O55    Er41    2.172   1_546 S
O56    C43     1.269   1_545 A
O58    Er41    2.222   1_556 S
O59    Er41    2.229   1_556 S
C60    C64     1.409   .     A
C60    C90     1.408   .     A
C60    C91     1.499   .     S
C61    H78     1.082   .     S
C61    C90     1.398   .     A
C61    C93     1.404   .     A
H62    C82     1.083   .     S
C63    C64     1.405   .     A
C63    H80     1.082   .     S
C63    C93     1.409   .     A
C64    H79     1.080   .     S
N65    H74     1.043   .     S
N65    C83     1.380   .     S
N65    C84     1.471   .     S
N66    H81     1.044   .     S
N66    C91     1.377   .     S
N66    C92     1.473   .     S
O67    C83     1.220   .     D
O68    C91     1.223   .     D
H69    C84     1.113   .     S
H70    C84     1.111   .     S
H71    C87     1.083   .     S
H72    C88     1.081   .     S
H73    C89     1.082   .     S
H75    C90     1.083   .     S
H76    C92     1.112   .     S
H77    C92     1.111   .     S
C82    C86     1.409   .     A
C82    C87     1.401   .     A
C83    C86     1.497   .     S
C85    C87     1.405   .     A
C85    C89     1.409   .     A
C85    C93     1.497   .     S
C86    C88     1.408   .     A
C88    C89     1.403   .     A
C94    C98     1.407   .     A
C94    C124    1.405   .     A
C94    C125    1.481   .     S
C95    H112    1.083   .     S
C95    C124    1.395   .     A
C95    C127    1.404   .     A
H96    C116    1.082   .     S
C97    C98     1.394   .     A
C97    C127    1.404   .     A
C97    H114    1.083   1_455 S
C98    H113    1.080   1_455 S
N99    H108    1.046   .     S
N99    C118    1.460   .     S
N99    C117    1.424   1_455 S
N100   H115    1.044   .     S
N100   C125    1.369   .     S
N100   C126    1.455   .     S
O101   C117    1.220   .     D
O102   C125    1.223   .     D
H103   C118    1.113   1_655 S
H104   C118    1.115   .     S
H105   C121    1.083   .     S
H106   C122    1.082   .     S
H107   C123    1.083   .     S
H109   C124    1.083   .     S
H110   C126    1.113   .     S
H111   C126    1.113   .     S
H113   C98     1.080   1_655 S
H114   C97     1.083   1_655 S
C116   C121    1.394   .     A
C116   C120    1.403   1_655 A
C117   N99     1.424   1_655 S
C117   C120    1.478   1_655 S
C118   H103    1.113   1_455 S
C119   C123    1.404   .     A
C119   C127    1.480   .     S
C119   C121    1.405   1_455 A
C120   C122    1.408   .     A
C120   C116    1.403   1_455 A
C120   C117    1.478   1_455 S
C121   C119    1.405   1_655 A
C122   C123    1.395   .     A
C128   C132    1.404   .     A
C128   C159    1.478   .     S
C128   C158    1.406   1_545 A
C129   C161    1.405   .     A
C129   H146    1.083   1_545 S
C129   C158    1.399   1_545 A
H130   C150    1.083   .     S
C131   C132    1.394   .     A
C131   H148    1.083   .     S
C131   C161    1.405   .     A
C132   H147    1.081   .     S
N133   H142    1.045   .     S
N133   C151    1.371   .     S
N133   C152    1.463   .     S
N134   H149    1.044   .     S
N134   C159    1.438   .     S
N134   C160    1.458   .     S
O135   C151    1.221   .     D
O136   C159    1.221   1_565 D
H137   C152    1.113   .     S
H138   C152    1.110   .     S
H139   C155    1.083   .     S
H140   C156    1.082   .     S
H141   C157    1.083   .     S
H143   C158    1.084   .     S
H144   C160    1.116   .     S
H145   C160    1.115   .     S
H146   C129    1.083   1_565 S
C150   C154    1.405   .     A
C150   C155    1.396   .     A
C151   C154    1.484   .     S
C153   C155    1.405   .     A
C153   C157    1.403   .     A
C153   C161    1.482   .     S
C154   C156    1.408   .     A
C156   C157    1.398   .     A
C158   C128    1.406   1_565 A
C158   C129    1.399   1_565 A
C159   O136    1.221   1_545 D
C162   C192    1.405   .     A
C162   C193    1.476   .     S
C162   C166    1.404   1_556 A
C163   H180    1.083   .     S
C163   C192    1.399   .     A
C163   C195    1.410   .     A
H164   C184    1.084   .     S
C165   C166    1.395   .     A
C165   H182    1.083   .     S
C165   C195    1.348   1_554 D
C166   H181    1.081   .     S
C166   C162    1.404   1_554 A
N167   H176    1.043   .     S
N167   C185    1.373   .     S
N167   C186    1.461   .     S
N168   H183    1.047   .     S
N168   C194    1.458   .     S
N168   C193    1.428   1_554 S
O169   C185    1.221   .     D
O170   C193    1.219   .     D
H171   C186    1.112   .     S
H172   C186    1.110   .     S
H173   C189    1.084   .     S
H174   C190    1.081   .     S
H175   C191    1.083   .     S
H177   C192    1.084   .     S
H178   C194    1.113   1_556 S
H179   C194    1.113   1_556 S
C184   C189    1.394   .     A
C184   C188    1.406   1_554 A
C185   C188    1.484   .     S
C187   C191    1.403   .     A
C187   C195    1.480   .     S
C187   C189    1.404   1_556 A
C188   C190    1.408   .     A
C188   C184    1.406   1_556 A
C189   C187    1.404   1_554 A
C190   C191    1.397   .     A
C193   N168    1.428   1_556 S
C194   H178    1.113   1_554 S
C194   H179    1.113   1_554 S
C195   C165    1.348   1_556 D
C196   C226    1.407   .     A
C196   C227    1.485   .     S
C196   C200    1.407   1_554 A
C197   H214    1.084   .     S
C197   C226    1.393   .     A
C197   C229    1.403   1_554 A
H198   C218    1.083   .     S
C199   C200    1.398   .     A
C199   H216    1.084   .     S
C199   C229    1.404   .     A
C200   H215    1.081   .     S
C200   C196    1.407   1_556 A
N201   H210    1.046   .     S
N201   C219    1.369   .     S
N201   C220    1.457   .     S
N202   C227    1.376   .     S
N202   C228    1.464   .     S
N202   H217    1.043   1_554 S
O203   C219    1.222   .     D
O204   C227    1.220   .     D
H205   C220    1.113   .     S
H206   C220    1.109   .     S
H207   C223    1.082   .     S
H208   C224    1.082   .     S
H209   C225    1.084   1_554 S
H211   C226    1.084   .     S
H212   C228    1.113   .     S
H213   C228    1.113   .     S
H217   N202    1.043   1_556 S
C218   C222    1.404   .     A
C218   C223    1.394   .     A
C219   C222    1.477   .     S
C221   C223    1.403   .     A
C221   C225    1.404   .     A
C221   C229    1.477   .     S
C222   C224    1.407   .     A
C224   C225    1.393   .     A
C225   H209    1.084   1_556 S
C229   C197    1.403   1_556 A
C230   C234    1.406   .     A
C230   C260    1.408   .     A
C230   C261    1.492   .     S
C231   H248    1.083   .     S
C231   C260    1.405   1_554 A
C231   C263    1.408   1_554 A
H232   C252    1.085   .     S
C233   C234    1.400   .     A
C233   H250    1.082   .     S
C233   C263    1.407   .     A
C234   H249    1.082   .     S
N235   H244    1.044   .     S
N235   C253    1.380   .     S
N235   C254    1.472   .     S
N236   H251    1.044   .     S
N236   C261    1.376   .     S
N236   C262    1.466   .     S
O237   C253    1.221   .     D
O238   C261    1.221   .     D
H239   C254    1.116   .     S
H240   C254    1.114   1_556 S
H241   C257    1.083   .     S
H242   C258    1.080   .     S
H243   C259    1.082   .     S
H245   C260    1.084   1_554 S
H246   C262    1.111   .     S
H247   C262    1.110   .     S
C252   C256    1.411   .     A
C252   C257    1.403   .     A
C253   C256    1.500   1_554 S
C254   H240    1.114   1_554 S
C255   C257    1.407   .     A
C255   C263    1.498   .     S
C255   C259    1.407   1_556 A
C256   C253    1.500   1_556 S
C256   C258    1.409   1_556 A
C258   C259    1.405   .     A
C258   C256    1.409   1_554 A
C259   C255    1.407   1_554 A
C260   C231    1.405   1_556 A
C260   H245    1.084   1_556 S
C263   C231    1.408   1_556 A
C264   C268    1.410   .     A
C264   C294    1.404   .     A
C264   C295    1.490   .     S
C265   H282    1.083   .     S
C265   C294    1.394   .     A
C265   C297    1.405   .     A
H266   C286    1.084   .     S
C267   C268    1.406   .     A
C267   H284    1.083   .     S
C267   C297    1.406   .     A
C268   H283    1.082   .     S
N269   C287    1.370   .     S
N269   C288    1.460   .     S
N269   H278    1.044   1_554 S
N270   H285    1.045   .     S
N270   C295    1.375   .     S
N270   C296    1.472   .     S
O271   C287    1.221   .     D
O272   C295    1.220   .     D
H273   C288    1.115   .     S
H274   C288    1.114   1_556 S
H275   C291    1.083   1_556 S
H276   C292    1.081   .     S
H277   C293    1.083   .     S
H278   N269    1.044   1_556 S
H279   C294    1.083   .     S
H280   C296    1.112   .     S
H281   C296    1.111   .     S
C286   C290    1.407   .     A
C286   C291    1.401   .     A
C287   C290    1.483   .     S
C288   H274    1.114   1_554 S
C289   C297    1.488   .     S
C289   C291    1.406   1_556 A
C289   C293    1.405   1_556 A
C290   C292    1.405   .     A
C291   H275    1.083   1_554 S
C291   C289    1.406   1_554 A
C292   C293    1.394   .     A
C293   C289    1.405   1_554 A
C298   C328    1.406   .     A
C298   C329    1.481   .     S
C298   C302    1.405   1_554 A
C299   H316    1.083   .     S
C299   C328    1.397   .     A
C299   C331    1.405   1_554 A
H300   C320    1.083   .     S
C301   C302    1.396   .     A
C301   H318    1.083   .     S
C301   C331    1.406   .     A
C302   H317    1.082   .     S
C302   C298    1.405   1_556 A
N303   H312    1.044   .     S
N303   C321    1.374   .     S
N303   C322    1.464   .     S
N304   C329    1.373   .     S
N304   C330    1.460   .     S
N304   H319    1.044   1_554 S
O305   C321    1.222   .     D
O306   C329    1.222   .     D
H307   C322    1.112   .     S
H308   C322    1.109   .     S
H309   C325    1.083   .     S
H310   C326    1.082   .     S
H311   C327    1.083   1_554 S
H313   C328    1.083   .     S
H314   C330    1.112   .     S
H315   C330    1.111   .     S
H319   N304    1.044   1_556 S
C320   C324    1.404   .     A
C320   C325    1.394   .     A
C321   C324    1.482   .     S
C323   C325    1.405   .     A
C323   C327    1.406   .     A
C323   C331    1.484   .     S
C324   C326    1.407   .     A
C326   C327    1.401   .     A
C327   H311    1.083   1_556 S
C331   C299    1.405   1_556 A
C332   C336    1.406   .     A
C332   C362    1.409   .     A
C332   C363    1.491   .     S
C333   H350    1.083   .     S
C333   C362    1.401   .     A
C333   C365    1.406   .     A
H334   C354    1.083   .     S
C335   C336    1.398   .     A
C335   H352    1.083   .     S
C335   C365    1.407   .     A
C336   H351    1.082   .     S
N337   C355    1.374   .     S
N337   C356    1.464   .     S
N337   H346    1.044   1_554 S
N338   H353    1.043   .     S
N338   C363    1.377   .     S
N338   C364    1.467   .     S
O339   C355    1.222   .     D
O340   C363    1.221   .     D
H341   C356    1.112   .     S
H342   C356    1.112   .     S
H343   C359    1.082   .     S
H344   C360    1.082   1_556 S
H345   C361    1.082   .     S
H346   N337    1.044   1_556 S
H347   C362    1.084   .     S
H348   C364    1.106   .     S
H349   C364    1.112   .     S
C354   C358    1.405   .     A
C354   C359    1.397   .     A
C355   C358    1.488   .     S
C357   C361    1.407   .     A
C357   C365    1.490   .     S
C357   C359    1.405   1_556 A
C358   C360    1.408   .     A
C359   C357    1.405   1_554 A
C360   H344    1.082   1_554 S
C360   C361    1.402   1_554 A
C361   C360    1.402   1_556 A
