data_kag+N123+E15
_audit_creation_date              2025-01-21
_audit_creation_method            'Materials Studio'
_symmetry_space_group_name_H-M    'P1'
_symmetry_Int_Tables_number       1
_symmetry_cell_setting            triclinic
loop_
_symmetry_equiv_pos_as_xyz
  x,y,z
_cell_length_a                    25.6099
_cell_length_b                    23.7424
_cell_length_c                    9.5781
_cell_angle_alpha                 102.9738
_cell_angle_beta                  90.4499
_cell_angle_gamma                 128.9104
loop_
_atom_site_label
_atom_site_type_symbol
_atom_site_fract_x
_atom_site_fract_y
_atom_site_fract_z
_atom_site_U_iso_or_equiv
_atom_site_adp_type
_atom_site_occupancy
Ce0    Ce    0.58364   0.54765   0.05907   0.00000  Uiso   1.00
Ce1    Ce    0.43311   0.48089   0.99607   0.00000  Uiso   1.00
C2     C     0.48245   0.48877   0.26628   0.00000  Uiso   1.00
C3     C     0.71406   0.60036   0.07422   0.00000  Uiso   1.00
C4     C     0.55468   0.66137   1.03444   0.00000  Uiso   1.00
C5     C     0.55597   0.50482   0.76738   0.00000  Uiso   1.00
C6     C     0.30248   0.42233   0.94048   0.00000  Uiso   1.00
C7     C     0.46335   0.36534   0.00209   0.00000  Uiso   1.00
O8     O     0.42595   0.43503   0.19661   0.00000  Uiso   1.00
O9     O     0.51519   0.54514   0.20235   0.00000  Uiso   1.00
O10    O     0.68933   0.60369   0.18793   0.00000  Uiso   1.00
O11    O     0.67280   0.57071   0.95334   0.00000  Uiso   1.00
O12    O     0.60147   0.65545   1.05248   0.00000  Uiso   1.00
O13    O     0.48873   0.60600   1.01180   0.00000  Uiso   1.00
O14    O     0.61076   0.53188   0.83704   0.00000  Uiso   1.00
O15    O     0.50950   0.49580   0.85479   0.00000  Uiso   1.00
O16    O     0.33250   0.41609   0.83937   0.00000  Uiso   1.00
O17    O     0.33817   0.45595   0.07039   0.00000  Uiso   1.00
O18    O     0.41695   0.37118  -0.02188   0.00000  Uiso   1.00
O19    O     0.52883   0.42237   0.04143   0.00000  Uiso   1.00
Ce20   Ce    0.04899   0.48279   0.01566   0.00000  Uiso   1.00
Ce21   Ce    0.97466   0.54665   0.06950   0.00000  Uiso   1.00
C22    C     0.95503   0.50701   0.77870   0.00000  Uiso   1.00
C23    C     0.11057   0.42372   0.95281   0.00000  Uiso   1.00
C24    C     0.88182   0.36410  -0.00926   0.00000  Uiso   1.00
C25    C    -0.00055   0.47968   0.27427   0.00000  Uiso   1.00
C26    C     0.90638   0.60013   0.07986   0.00000  Uiso   1.00
C27    C     0.13735   0.66352   1.06277   0.00000  Uiso   1.00
O28    O     0.93291   0.53550   0.84677   0.00000  Uiso   1.00
O29    O     0.99091   0.49732   0.86682   0.00000  Uiso   1.00
O30    O     0.07465   0.42134   0.85490   0.00000  Uiso   1.00
O31    O     0.11363   0.45426   0.08424   0.00000  Uiso   1.00
O32    O     0.93616   0.37086  -0.01924   0.00000  Uiso   1.00
O33    O     0.88243   0.42040   0.03390   0.00000  Uiso   1.00
O34    O    -0.00542   0.42763   0.20007   0.00000  Uiso   1.00
O35    O     0.03557   0.54023   0.22161   0.00000  Uiso   1.00
O36    O     0.93240   0.60065   0.19463   0.00000  Uiso   1.00
O37    O     0.91548   0.57306   0.96099   0.00000  Uiso   1.00
O38    O     0.08224   0.65498   1.07419   0.00000  Uiso   1.00
O39    O     0.14041   0.60958   1.04381   0.00000  Uiso   1.00
Ce40   Ce    0.52323   0.95541   0.99099   0.00000  Uiso   1.00
Ce41   Ce    0.48868   0.06124  -0.01824   0.00000  Uiso   1.00
C42    C     0.51403   0.04603   0.25146   0.00000  Uiso   1.00
C43    C     0.55824   0.87217   1.01969   0.00000  Uiso   1.00
C44    C     0.64460   0.12903   0.95937   0.00000  Uiso   1.00
C45    C     0.52576   0.98621   0.72829   0.00000  Uiso   1.00
C46    C     0.45308   0.14608  -0.02347   0.00000  Uiso   1.00
C47    C     0.37085   0.89517   0.03282   0.00000  Uiso   1.00
O48    O     0.46765   0.04429   0.21785   0.00000  Uiso   1.00
O49    O     0.55129   0.05977   0.14513   0.00000  Uiso   1.00
O50    O     0.57641   0.92986   0.12089   0.00000  Uiso   1.00
O51    O     0.52161   0.85597   0.90205   0.00000  Uiso   1.00
O52    O     0.62913   0.06586   0.96714   0.00000  Uiso   1.00
O53    O     0.60219   0.14209  -0.03753   0.00000  Uiso   1.00
O54    O     0.56824   0.98703   0.78846   0.00000  Uiso   1.00
O55    O     0.47409   0.96589   0.80823   0.00000  Uiso   1.00
O56    O     0.43357   0.09017   0.86871   0.00000  Uiso   1.00
O57    O     0.48981   0.15832   0.08954   0.00000  Uiso   1.00
O58    O     0.38713   0.95691   0.01556   0.00000  Uiso   1.00
O59    O     0.41195   0.88050   1.03344   0.00000  Uiso   1.00
N60    N     0.60463   0.53970   0.55411   0.00000  Uiso   1.00
N61    N     0.58519   0.53742   0.42500   0.00000  Uiso   1.00
C62    C     0.51667   0.49359   0.39618   0.00000  Uiso   1.00
C63    C     0.49040   0.46648   0.51400   0.00000  Uiso   1.00
C64    C     0.54856   0.49783   0.61221   0.00000  Uiso   1.00
H65    H     0.43827   0.43520   0.53087   0.00000  Uiso   1.00
H66    H     0.65570   0.57337   0.60568   0.00000  Uiso   1.00
H67    H     0.61855   0.56989   0.36163   0.00000  Uiso   1.00
N68    N     0.93446   0.50695   0.41279   0.00000  Uiso   1.00
N69    N     0.92292   0.51474   0.54599   0.00000  Uiso   1.00
C70    C     0.94759   0.49131   0.62012   0.00000  Uiso   1.00
C71    C    -0.02479   0.46630   0.52858   0.00000  Uiso   1.00
C72    C     0.96616   0.47811   0.39782   0.00000  Uiso   1.00
H73    H     0.00330   0.44900   0.55707   0.00000  Uiso   1.00
H74    H     0.92436   0.52526   0.33572   0.00000  Uiso   1.00
H75    H     0.90250   0.54019   0.58873   0.00000  Uiso   1.00
N76    N     0.59126   0.03009   0.53467   0.00000  Uiso   1.00
N77    N     0.58903   0.04669   0.41386   0.00000  Uiso   1.00
C78    C     0.53109   0.03561   0.38656   0.00000  Uiso   1.00
C79    C     0.49402   1.01031   0.49774   0.00000  Uiso   1.00
C80    C     0.53488   0.00775   0.58997   0.00000  Uiso   1.00
H81    H     0.44469   0.99502   0.50831   0.00000  Uiso   1.00
H82    H     0.63147   0.03435   0.57919   0.00000  Uiso   1.00
H83    H     0.62685   0.06522   0.35030   0.00000  Uiso   1.00
N84    N     0.14286   0.36137   0.77685   0.00000  Uiso   1.00
N85    N     0.19416   0.36106   0.77310   0.00000  Uiso   1.00
C86    C     0.23324   0.39647   0.90832   0.00000  Uiso   1.00
C87    C     0.20490   0.41913   0.00265   0.00000  Uiso   1.00
C88    C     0.14833   0.39703   0.91435   0.00000  Uiso   1.00
H89    H     0.22708   0.45486   0.11493   0.00000  Uiso   1.00
H90    H     0.10753   0.34219   0.68464   0.00000  Uiso   1.00
H91    H     0.20444   0.34113   0.67738   0.00000  Uiso   1.00
N92    N     0.71399   0.20467   0.79837   0.00000  Uiso   1.00
N93    N     0.77667   0.26617  -0.19380   0.00000  Uiso   1.00
C94    C     0.81462   0.28866  -0.06364   0.00000  Uiso   1.00
C95    C     0.77381   0.23887   1.01554   0.00000  Uiso   1.00
C96    C     0.71022   0.18570   0.92246   0.00000  Uiso   1.00
H97    H     0.78668   0.24424   1.12857   0.00000  Uiso   1.00
H98    H     0.67346   0.17819   0.71253   0.00000  Uiso   1.00
H99    H     0.79238   0.29483  -0.27276   0.00000  Uiso   1.00
N100   N     0.82022   0.66089  -0.02324   0.00000  Uiso   1.00
N101   N     0.87140   0.66047   0.97797   0.00000  Uiso   1.00
C102   C     0.86932   0.62806   1.07894   0.00000  Uiso   1.00
C103   C     0.81406   0.60693   1.14529   0.00000  Uiso   1.00
C104   C     0.78393   0.62825   0.07646   0.00000  Uiso   1.00
H105   H     0.79383   0.57240   1.21854   0.00000  Uiso   1.00
H106   H     0.80715   0.67765  -0.09898   0.00000  Uiso   1.00
H107   H     0.90440   0.67780   0.90411   0.00000  Uiso   1.00
N108   N     0.20043   0.79937   1.09569   0.00000  Uiso   1.00
N109   N     0.26138   0.85966   0.08739   0.00000  Uiso   1.00
C110   C     0.30084   0.84091   0.05738   0.00000  Uiso   1.00
C111   C     0.26337   0.76467   0.04667   0.00000  Uiso   1.00
C112   C     0.19963   0.74065   1.07100   0.00000  Uiso   1.00
H113   H     0.27893   0.73114   0.01953   0.00000  Uiso   1.00
H114   H     0.15986   0.79857   1.11498   0.00000  Uiso   1.00
H115   H     0.27507   0.91266   0.10038   0.00000  Uiso   1.00
N116   N     0.62900   0.79986   1.15394   0.00000  Uiso   1.00
N117   N     0.62919   0.85488   1.15082   0.00000  Uiso   1.00
C118   C     0.57895   0.82895   1.04007   0.00000  Uiso   1.00
C119   C     0.54501   0.75315   0.97116   0.00000  Uiso   1.00
C120   C     0.57810   0.73684   1.04659   0.00000  Uiso   1.00
H121   H     0.49969   0.71438   0.88671   0.00000  Uiso   1.00
H122   H     0.65910   0.80302   1.23669   0.00000  Uiso   1.00
H123   H     0.65934   0.90788   1.23048   0.00000  Uiso   1.00
N124   N     0.37659   0.16724  -0.10952   0.00000  Uiso   1.00
N125   N     0.37894   0.22507  -0.10116   0.00000  Uiso   1.00
C126   C     0.43950   0.28871  -0.01841   0.00000  Uiso   1.00
C127   C     0.47689   0.27058   0.02927   0.00000  Uiso   1.00
C128   C     0.43516   0.19304  -0.03063   0.00000  Uiso   1.00
H129   H     0.52821   0.30848   0.09352   0.00000  Uiso   1.00
H130   H     0.33620   0.11158  -0.17069   0.00000  Uiso   1.00
H131   H     0.34087   0.22097  -0.15631   0.00000  Uiso   1.00
loop_
_geom_bond_atom_site_label_1
_geom_bond_atom_site_label_2
_geom_bond_distance
_geom_bond_site_symmetry_2
_ccdc_geom_bond_type
Ce0    O9      2.214   .     S
Ce0    O10     2.304   .     S
Ce0    O19     2.318   .     S
Ce0    O11     2.292   1_554 S
Ce0    O12     2.317   1_554 S
Ce0    O14     2.267   1_554 S
Ce0    O15     2.207   1_554 S
Ce1    O13     2.314   .     S
Ce1    O15     2.274   .     S
Ce1    O16     2.276   .     S
Ce1    O8      2.367   1_556 S
Ce1    O9      2.281   1_556 S
Ce1    O17     2.275   1_556 S
Ce1    O18     2.330   1_556 S
C2     O8      1.204   .     D
C2     O9      1.355   .     S
C2     C62     1.457   .     S
C3     O10     1.276   .     A
C3     C104    1.465   .     S
C3     O11     1.278   1_554 A
C4     O12     1.306   .     A
C4     O13     1.306   .     A
C4     C120    1.463   .     S
C5     O14     1.220   .     D
C5     O15     1.392   .     S
C5     C64     1.455   .     S
C6     O16     1.281   .     A
C6     C86     1.468   .     S
C6     O17     1.281   1_556 A
C7     O18     1.304   .     A
C7     O19     1.302   .     A
C7     C126    1.471   .     S
O8     Ce1     2.367   1_554 S
O9     Ce1     2.281   1_554 S
O11    Ce0     2.292   1_556 S
O11    C3      1.278   1_556 A
O12    Ce0     2.317   1_556 S
O14    Ce0     2.267   1_556 S
O15    Ce0     2.207   1_556 S
O17    Ce1     2.275   1_554 S
O17    C6      1.281   1_554 A
O18    Ce1     2.330   1_554 S
Ce20   O31     2.285   .     S
Ce20   O34     2.358   .     S
Ce20   O35     2.294   .     S
Ce20   O29     2.279   1_454 S
Ce20   O30     2.268   1_554 S
Ce20   O32     2.337   1_455 S
Ce20   O39     2.321   1_554 S
Ce21   O33     2.305   .     S
Ce21   O36     2.307   .     S
Ce21   O28     2.263   1_554 S
Ce21   O29     2.218   1_554 S
Ce21   O35     2.223   1_655 S
Ce21   O37     2.287   1_554 S
Ce21   O38     2.292   1_654 S
C22    O28     1.222   .     D
C22    O29     1.396   .     S
C22    C70     1.461   .     S
C23    O30     1.275   .     A
C23    C88     1.464   .     S
C23    O31     1.278   1_556 A
C24    O32     1.304   .     A
C24    O33     1.297   .     A
C24    C94     1.461   .     S
C25    O34     1.208   .     D
C25    O35     1.356   .     S
C25    C72     1.457   1_455 S
C26    O36     1.275   .     A
C26    O37     1.276   1_554 A
C26    C102    1.461   1_554 S
C27    O38     1.303   .     A
C27    O39     1.304   .     A
C27    C112    1.472   .     S
O28    Ce21    2.263   1_556 S
O29    Ce20    2.279   1_656 S
O29    Ce21    2.218   1_556 S
O30    Ce20    2.268   1_556 S
O31    C23     1.278   1_554 A
O32    Ce20    2.337   1_655 S
O35    Ce21    2.223   1_455 S
O37    Ce21    2.287   1_556 S
O37    C26     1.276   1_556 A
O38    Ce21    2.292   1_456 S
O39    Ce20    2.321   1_556 S
Ce40   O51     2.297   .     S
Ce40   O54     2.293   .     S
Ce40   O55     2.294   .     S
Ce40   O59     2.329   .     S
Ce40   O49     2.222   1_566 S
Ce40   O50     2.263   1_556 S
Ce40   O52     2.372   1_565 S
Ce41   O48     2.392   .     S
Ce41   O49     2.253   .     S
Ce41   O53     2.308   .     S
Ce41   O57     2.286   .     S
Ce41   O55     2.295   1_544 S
Ce41   O56     2.273   1_554 S
Ce41   O58     2.299   1_545 S
C42    O48     1.201   .     D
C42    O49     1.352   .     S
C42    C78     1.482   .     S
C43    O51     1.278   .     A
C43    C118    1.464   .     S
C43    O50     1.276   1_556 A
C44    O52     1.310   .     A
C44    C96     1.463   .     S
C44    O53     1.302   1_556 A
C45    O54     1.214   .     D
C45    O55     1.396   .     S
C45    C80     1.493   1_565 S
C46    O57     1.281   .     A
C46    C128    1.461   .     S
C46    O56     1.273   1_554 A
C47    O58     1.301   .     A
C47    C110    1.473   .     S
C47    O59     1.300   1_554 A
O49    Ce40    2.222   1_544 S
O50    Ce40    2.263   1_554 S
O50    C43     1.276   1_554 A
O52    Ce40    2.372   1_545 S
O53    C44     1.302   1_554 A
O55    Ce41    2.295   1_566 S
O56    Ce41    2.273   1_556 S
O56    C46     1.273   1_556 A
O58    Ce41    2.299   1_565 S
O59    C47     1.300   1_556 A
N60    N61     1.306   .     A
N60    C64     1.352   .     A
N60    H66     1.045   .     S
N61    C62     1.345   .     A
N61    H67     1.041   .     S
C62    C63     1.391   .     A
C63    C64     1.389   .     A
C63    H65     1.082   .     S
N68    N69     1.311   .     A
N68    C72     1.344   .     A
N68    H74     1.041   .     S
N69    C70     1.351   .     A
N69    H75     1.047   .     S
C70    C71     1.388   1_655 A
C71    H73     1.086   .     S
C71    C70     1.388   1_455 A
C71    C72     1.391   1_455 A
C72    C71     1.391   1_655 A
C72    C25     1.457   1_655 S
N76    N77     1.315   .     A
N76    C80     1.350   .     A
N76    H82     1.047   .     S
N77    C78     1.346   .     A
N77    H83     1.047   .     S
C78    C79     1.408   1_545 A
C79    H81     1.086   .     S
C79    C78     1.408   1_565 A
C79    C80     1.403   1_565 A
C80    C79     1.403   1_545 A
C80    C45     1.493   1_545 S
N84    N85     1.319   .     A
N84    C88     1.348   .     A
N84    H90     1.047   .     S
N85    C86     1.349   .     A
N85    H91     1.049   .     S
C86    C87     1.384   1_556 A
C87    H89     1.084   .     S
C87    C86     1.384   1_554 A
C87    C88     1.384   1_554 A
C88    C87     1.384   1_556 A
N92    C96     1.346   .     A
N92    H98     1.041   .     S
N92    N93     1.311   1_556 A
N93    C94     1.347   .     A
N93    H99     1.043   .     S
N93    N92     1.311   1_554 A
C94    C95     1.388   1_554 A
C95    C96     1.389   .     A
C95    H97     1.085   .     S
C95    C94     1.388   1_556 A
N100   C104    1.348   .     A
N100   H106    1.044   .     S
N100   N101    1.317   1_554 A
N101   C102    1.347   .     A
N101   H107    1.043   .     S
N101   N100    1.317   1_556 A
C102   C103    1.387   .     A
C102   C26     1.461   1_556 S
C103   H105    1.079   .     S
C103   C104    1.385   1_556 A
C104   C103    1.385   1_554 A
N108   C112    1.348   .     A
N108   H114    1.046   .     S
N108   N109    1.318   1_556 A
N109   C110    1.347   .     A
N109   H115    1.047   .     S
N109   N108    1.318   1_554 A
C110   C111    1.393   .     A
C111   H113    1.080   .     S
C111   C112    1.393   1_554 A
C112   C111    1.393   1_556 A
N116   N117    1.310   .     A
N116   C120    1.354   .     A
N116   H122    1.058   .     S
N117   C118    1.360   .     A
N117   H123    1.049   .     S
C118   C119    1.387   .     A
C119   C120    1.385   .     A
C119   H121    1.076   .     S
N124   N125    1.320   .     A
N124   C128    1.348   .     A
N124   H130    1.042   .     S
N125   C126    1.347   .     A
N125   H131    1.043   .     S
C126   C127    1.382   .     A
C127   C128    1.380   .     A
C127   H129    1.081   .     S
