data_kag+N155+E28
_audit_creation_date              2025-01-21
_audit_creation_method            'Materials Studio'
_symmetry_space_group_name_H-M    'P1'
_symmetry_Int_Tables_number       1
_symmetry_cell_setting            triclinic
loop_
_symmetry_equiv_pos_as_xyz
  x,y,z
_cell_length_a                    41.4609
_cell_length_b                    43.6541
_cell_length_c                    19.2095
_cell_angle_alpha                 90.3123
_cell_angle_beta                  93.2459
_cell_angle_gamma                 125.6938
loop_
_atom_site_label
_atom_site_type_symbol
_atom_site_fract_x
_atom_site_fract_y
_atom_site_fract_z
_atom_site_U_iso_or_equiv
_atom_site_adp_type
_atom_site_occupancy
C0     C     0.47050   0.39779   0.00168   0.00000  Uiso   1.00
Ho1    Ho    0.48575   0.46406  -0.00002   0.00000  Uiso   1.00
C2     C     0.53413   0.60980   0.99891   0.00000  Uiso   1.00
Ho3    Ho    0.51655   0.54312   1.00198   0.00000  Uiso   1.00
O4     O     0.47394   0.41592   0.05772   0.00000  Uiso   1.00
O5     O     0.46882   0.41238   0.94524   0.00000  Uiso   1.00
O6     O     0.48237   0.44792   0.10848   0.00000  Uiso   1.00
O7     O     0.50322   0.50529   0.08431   0.00000  Uiso   1.00
C8     C     0.49395   0.47894   0.13413   0.00000  Uiso   1.00
C9     C     0.50873   0.52816   0.86771   0.00000  Uiso   1.00
O10    O     0.54900   0.48900   0.00387   0.00000  Uiso   1.00
O11    O     0.57509   0.55235   1.00746   0.00000  Uiso   1.00
O12    O     0.53080   0.59152   0.94306   0.00000  Uiso   1.00
O13    O     0.53367   0.59452   0.05583   0.00000  Uiso   1.00
O14    O     0.52088   0.55949   0.89275   0.00000  Uiso   1.00
O15    O     0.49970   0.50296   0.91984   0.00000  Uiso   1.00
O16    O     0.45264   0.51774   0.99585   0.00000  Uiso   1.00
O17    O     0.42682   0.45447  -0.00310   0.00000  Uiso   1.00
C18    C     0.42312   0.48223   0.99460   0.00000  Uiso   1.00
C19    C     0.57843   0.52441   0.00798   0.00000  Uiso   1.00
C20    C     0.08133   0.48044   0.01221   0.00000  Uiso   1.00
Ho21   Ho    0.02684   0.49176   0.00615   0.00000  Uiso   1.00
C22    C     0.91921   0.52643   0.98973   0.00000  Uiso   1.00
Ho23   Ho    0.97357   0.51510   0.99600   0.00000  Uiso   1.00
O24    O     0.06644   0.48252   0.06743   0.00000  Uiso   1.00
O25    O     0.06339   0.47949   0.95517   0.00000  Uiso   1.00
O26    O     0.03896   0.48913   0.11956   0.00000  Uiso   1.00
O27    O     1.00026   0.50462   0.08197   0.00000  Uiso   1.00
C28    C     1.01732   0.49793   0.13782   0.00000  Uiso   1.00
C29    C    -0.01758   0.50915   0.86442   0.00000  Uiso   1.00
O30    O     0.07091   0.55289   0.00820   0.00000  Uiso   1.00
O31    O     0.02984   0.57262   1.00049   0.00000  Uiso   1.00
O32    O     0.93419   0.52445   0.93454   0.00000  Uiso   1.00
O33    O     0.93705   0.52741   0.04695   0.00000  Uiso   1.00
O34    O     0.96091   0.51793   0.88356   0.00000  Uiso   1.00
O35    O    -0.00017   0.50233   0.91996   0.00000  Uiso   1.00
O36    O     0.92954   0.45375   0.99361   0.00000  Uiso   1.00
O37    O     0.97082   0.43425   0.00166   0.00000  Uiso   1.00
C38    C     0.93589   0.42795   0.99669   0.00000  Uiso   1.00
C39    C     0.06475   0.57878   0.00510   0.00000  Uiso   1.00
C40    C     0.53217   0.93181   0.99512   0.00000  Uiso   1.00
Ho41   Ho    0.51651   0.98077   0.99941   0.00000  Uiso   1.00
C42    C     0.47335   0.07751   0.00555   0.00000  Uiso   1.00
Ho43   Ho    0.48694   0.02702   0.00344   0.00000  Uiso   1.00
O44    O     0.52886   0.94636   0.93955   0.00000  Uiso   1.00
O45    O     0.53322   0.94772   0.05207   0.00000  Uiso   1.00
O46    O     0.51969   0.96951   0.88936   0.00000  Uiso   1.00
O47    O     0.49965   0.00401   0.91922   0.00000  Uiso   1.00
C48    C     0.50834  -0.01161   0.86706   0.00000  Uiso   1.00
C49    C     0.49529   0.01860   0.13621   0.00000  Uiso   1.00
O50    O     0.45276   0.93611   0.99518   0.00000  Uiso   1.00
O51    O     0.42782   0.97157  -0.00173   0.00000  Uiso   1.00
O52    O     0.47666   0.06341   0.06172   0.00000  Uiso   1.00
O53    O     0.47072   0.06024   0.94935   0.00000  Uiso   1.00
O54    O     0.48377   0.03746   0.11507   0.00000  Uiso   1.00
O55    O     0.50363   1.00373   0.08249   0.00000  Uiso   1.00
O56    O     0.55061   0.07132   0.00729   0.00000  Uiso   1.00
O57    O     0.57559   0.03592   1.00501   0.00000  Uiso   1.00
C58    C     0.57955   0.06785   0.00743   0.00000  Uiso   1.00
C59    C     0.42374   0.93952   0.99541   0.00000  Uiso   1.00
C60    C     0.48817   0.49682   0.35080   0.00000  Uiso   1.00
C61    C     0.46560   0.46052   0.31876   0.00000  Uiso   1.00
C62    C     0.46879   0.45508   0.24907   0.00000  Uiso   1.00
C63    C     0.49345   0.48590   0.20868   0.00000  Uiso   1.00
C64    C     0.51380   0.52275   0.23846   0.00000  Uiso   1.00
C65    C     0.51140   0.52829   0.30952   0.00000  Uiso   1.00
C66    C     0.48879   0.50029   0.42750   0.00000  Uiso   1.00
N67    N     0.51063   0.53447   0.46194   0.00000  Uiso   1.00
N68    N     0.51338   0.53681   0.53134   0.00000  Uiso   1.00
C69    C     0.49482   0.50529   0.56931   0.00000  Uiso   1.00
N70    N     0.47259   0.47107   0.53487   0.00000  Uiso   1.00
N71    N     0.46978   0.46873   0.46540   0.00000  Uiso   1.00
C72    C     0.49941   0.50903   0.64647   0.00000  Uiso   1.00
C73    C     0.47955   0.47778   0.68956   0.00000  Uiso   1.00
C74    C     0.48328   0.48362   0.76248   0.00000  Uiso   1.00
C75    C     0.50650   0.52050   0.79246   0.00000  Uiso   1.00
C76    C     0.52784   0.55113   0.74958   0.00000  Uiso   1.00
C77    C     0.52426   0.54546   0.67775   0.00000  Uiso   1.00
H78    H     0.44572   0.43602   0.34802   0.00000  Uiso   1.00
H79    H     0.45097   0.42663   0.22612   0.00000  Uiso   1.00
H80    H     0.53134   0.54702   0.20682   0.00000  Uiso   1.00
H81    H     0.52783   0.55696   0.33163   0.00000  Uiso   1.00
H82    H     0.46079   0.44904   0.66764   0.00000  Uiso   1.00
H83    H     0.46751   0.45970   0.79542   0.00000  Uiso   1.00
H84    H     0.54729   0.57983   0.77137   0.00000  Uiso   1.00
H85    H     0.54058   0.56994   0.64636   0.00000  Uiso   1.00
C86    C     0.99788   0.50486   0.64674   0.00000  Uiso   1.00
C87    C     0.02344   0.53876   0.68723   0.00000  Uiso   1.00
C88    C     0.01940   0.53999   0.75894   0.00000  Uiso   1.00
C89    C     0.99005   0.50721   0.79119   0.00000  Uiso   1.00
C90    C     0.96759   0.47266   0.75255   0.00000  Uiso   1.00
C91    C     0.97143   0.47149   0.68087   0.00000  Uiso   1.00
C92    C     0.99682   0.50467   0.56922   0.00000  Uiso   1.00
N93    N     0.97018   0.47241   0.53006   0.00000  Uiso   1.00
N94    N     0.96783   0.47251   0.46058   0.00000  Uiso   1.00
C95    C     0.99171   0.50499   0.42710   0.00000  Uiso   1.00
N96    N     0.01798   0.53733   0.46631   0.00000  Uiso   1.00
N97    N     0.02033   0.53722   0.53579   0.00000  Uiso   1.00
C98    C     0.99320   0.50421   0.35000   0.00000  Uiso   1.00
C99    C     0.02136   0.53714   0.31648   0.00000  Uiso   1.00
C100   C     0.02893   0.53505   0.24717   0.00000  Uiso   1.00
C101   C     0.00854   0.50002   0.21027   0.00000  Uiso   1.00
C102   C     0.97708   0.46778   0.24077   0.00000  Uiso   1.00
C103   C     0.96934   0.46993   0.31007   0.00000  Uiso   1.00
H104   H     0.04589   0.56444   0.66301   0.00000  Uiso   1.00
H105   H     0.03863   0.56676   0.78840   0.00000  Uiso   1.00
H106   H     0.94596   0.44677   0.77703   0.00000  Uiso   1.00
H107   H     0.95281   0.44459   0.65186   0.00000  Uiso   1.00
H108   H     0.03831   0.56441   0.34439   0.00000  Uiso   1.00
H109   H     0.05124   0.56078   0.22300   0.00000  Uiso   1.00
H110   H     0.95861   0.44090   0.21148   0.00000  Uiso   1.00
H111   H     0.94528   0.44467   0.33294   0.00000  Uiso   1.00
C112   C     0.51225   0.00680   0.35386   0.00000  Uiso   1.00
C113   C     0.53246   0.04239   0.32501   0.00000  Uiso   1.00
C114   C     0.52655   0.04578   0.25434   0.00000  Uiso   1.00
C115   C     0.50162   0.01368   0.21019   0.00000  Uiso   1.00
C116   C     0.48437   0.97764   0.23692   0.00000  Uiso   1.00
C117   C     0.48933   0.97419   0.30879   0.00000  Uiso   1.00
C118   C     0.51230   0.00486   0.43082   0.00000  Uiso   1.00
N119   N     0.49052   0.97125   0.46139   0.00000  Uiso   1.00
N120   N     0.48704   0.97011   0.52996   0.00000  Uiso   1.00
C121   C     0.50471   0.00236   0.57081   0.00000  Uiso   1.00
N122   N     0.52690   0.03597   0.54040   0.00000  Uiso   1.00
N123   N     0.53041   0.03711   0.47184   0.00000  Uiso   1.00
C124   C     0.50158   0.00039   0.64731   0.00000  Uiso   1.00
C125   C     0.52230   0.03297   0.69263   0.00000  Uiso   1.00
C126   C     0.52297   0.02945   0.76534   0.00000  Uiso   1.00
C127   C     0.50338  -0.00667   0.79271   0.00000  Uiso   1.00
C128   C     0.48031   0.96131   0.74776   0.00000  Uiso   1.00
C129   C     0.47905   0.96479   0.67597   0.00000  Uiso   1.00
H130   H     0.55202   0.06786   0.35774   0.00000  Uiso   1.00
H131   H     0.54163   0.07371   0.23426   0.00000  Uiso   1.00
H132   H     0.46593   0.95227   0.20320   0.00000  Uiso   1.00
H133   H     0.47458   0.94621   0.32910   0.00000  Uiso   1.00
H134   H     0.53885   0.06097   0.67203   0.00000  Uiso   1.00
H135   H     0.54046   0.05484   0.79932   0.00000  Uiso   1.00
H136   H     0.46379   0.93340   0.76806   0.00000  Uiso   1.00
H137   H     0.46128   0.93931   0.64261   0.00000  Uiso   1.00
C138   C     0.32558   0.48935   0.99710   0.00000  Uiso   1.00
C139   C     0.33999   0.48210   0.05814   0.00000  Uiso   1.00
C140   C     0.36839   0.47459   0.05554   0.00000  Uiso   1.00
C141   C     0.38385   0.47518  -0.00782   0.00000  Uiso   1.00
C142   C     0.37034   0.48342   0.93129   0.00000  Uiso   1.00
C143   C     0.34162   0.49065   0.93371   0.00000  Uiso   1.00
C144   C     0.29333   0.49449   1.00015   0.00000  Uiso   1.00
N145   N     0.27716   0.49933   0.94146   0.00000  Uiso   1.00
N146   N     0.24623   0.50111   0.94438   0.00000  Uiso   1.00
C147   C     0.23026   0.49819   0.00609   0.00000  Uiso   1.00
N148   N     0.24665   0.49363   0.06459   0.00000  Uiso   1.00
N149   N     0.27749   0.49184   0.06168   0.00000  Uiso   1.00
C150   C     0.19380   0.49676   0.00908   0.00000  Uiso   1.00
C151   C     0.17632   0.49156   0.07284   0.00000  Uiso   1.00
C152   C     0.13918   0.48531   0.07443   0.00000  Uiso   1.00
C153   C     0.11901   0.48416   0.01229   0.00000  Uiso   1.00
C154   C     0.13767   0.49173   0.94943   0.00000  Uiso   1.00
C155   C     0.17474   0.49819   0.94778   0.00000  Uiso   1.00
H156   H     0.33034   0.48357   0.10847   0.00000  Uiso   1.00
H157   H     0.38041   0.47106   0.10389   0.00000  Uiso   1.00
H158   H     0.38392   0.48659   0.88275   0.00000  Uiso   1.00
H159   H     0.33314   0.49868   0.88668   0.00000  Uiso   1.00
H160   H     0.19121   0.49203   0.12146   0.00000  Uiso   1.00
H161   H     0.12639   0.48163   0.12400   0.00000  Uiso   1.00
H162   H     0.12385   0.49337   0.90143   0.00000  Uiso   1.00
H163   H     0.18821   0.50390   0.89834   0.00000  Uiso   1.00
C164   C     0.81945   0.32778  -0.00287   0.00000  Uiso   1.00
C165   C     0.83679   0.34188   0.93353   0.00000  Uiso   1.00
C166   C     0.87682   0.37251   0.93316   0.00000  Uiso   1.00
C167   C     0.89987   0.38956  -0.00371   0.00000  Uiso   1.00
C168   C     0.88244   0.37618   0.05961   0.00000  Uiso   1.00
C169   C     0.84246   0.34582   0.06005   0.00000  Uiso   1.00
C170   C     0.77884   0.29262  -0.00159   0.00000  Uiso   1.00
N171   N     0.76372   0.27756   0.06017   0.00000  Uiso   1.00
N172   N     0.72991   0.24320   0.06197   0.00000  Uiso   1.00
C173   C     0.70978   0.22245   1.00202   0.00000  Uiso   1.00
N174   N     0.72421   0.23798   0.94016   0.00000  Uiso   1.00
N175   N     0.75805   0.27236   0.93837   0.00000  Uiso   1.00
C176   C     0.67614   0.18221   1.00417   0.00000  Uiso   1.00
C177   C     0.65847   0.15985   0.94194   0.00000  Uiso   1.00
C178   C     0.63018   0.12094   0.94378   0.00000  Uiso   1.00
C179   C     0.61846   0.10376   1.00774   0.00000  Uiso   1.00
C180   C     0.63477   0.12611   0.07006   0.00000  Uiso   1.00
C181   C     0.66336   0.16510   0.06832   0.00000  Uiso   1.00
H182   H     0.81924   0.32966   0.88425   0.00000  Uiso   1.00
H183   H     0.88928   0.38423   0.88386   0.00000  Uiso   1.00
H184   H     0.89917   0.39075   0.10859   0.00000  Uiso   1.00
H185   H     0.82940   0.33674   0.10969   0.00000  Uiso   1.00
H186   H     0.66600   0.17259   0.89176   0.00000  Uiso   1.00
H187   H     0.61534   0.10455   0.89517   0.00000  Uiso   1.00
H188   H     0.62357   0.11371   0.11962   0.00000  Uiso   1.00
H189   H     0.67484   0.18199   0.11694   0.00000  Uiso   1.00
C190   C     0.80686   0.50986  -0.00848   0.00000  Uiso   1.00
C191   C     0.82666   0.51934   0.92938   0.00000  Uiso   1.00
C192   C     0.86364   0.52538   0.92821   0.00000  Uiso   1.00
C193   C     0.88143   0.52230   0.98928   0.00000  Uiso   1.00
C194   C     0.86048   0.51040   0.04992   0.00000  Uiso   1.00
C195   C     0.82345   0.50401   0.05110   0.00000  Uiso   1.00
C196   C     0.77056   0.50852  -0.00521   0.00000  Uiso   1.00
N197   N     0.75173   0.50097   0.05480   0.00000  Uiso   1.00
N198   N     0.72071   0.50260   0.05812   0.00000  Uiso   1.00
C199   C     0.70739   0.51192   0.00158   0.00000  Uiso   1.00
N200   N     0.72620   0.51928   0.94187   0.00000  Uiso   1.00
N201   N     0.75706   0.51764   0.93855   0.00000  Uiso   1.00
C202   C     0.67509   0.51683   0.00535   0.00000  Uiso   1.00
C203   C     0.66400   0.52881   0.94679   0.00000  Uiso   1.00
C204   C     0.63570   0.53630   0.95050   0.00000  Uiso   1.00
C205   C     0.61722   0.53109   1.01237   0.00000  Uiso   1.00
C206   C     0.62722   0.51799   0.07044   0.00000  Uiso   1.00
C207   C     0.65581   0.51074   0.06695   0.00000  Uiso   1.00
H208   H     0.81381   0.52256   0.88178   0.00000  Uiso   1.00
H209   H     0.87829   0.53244   0.87993   0.00000  Uiso   1.00
H210   H     0.87250   0.50530   0.09630   0.00000  Uiso   1.00
H211   H     0.80819   0.49504   0.09889   0.00000  Uiso   1.00
H212   H     0.67633   0.53124   0.89725   0.00000  Uiso   1.00
H213   H     0.62609   0.54338   0.90352   0.00000  Uiso   1.00
H214   H     0.61089   0.51098   0.11687   0.00000  Uiso   1.00
H215   H     0.66176   0.49914   0.11141   0.00000  Uiso   1.00
C216   C     0.32513   0.82481   0.99456   0.00000  Uiso   1.00
C217   C     0.34490   0.84573   0.05754   0.00000  Uiso   1.00
C218   C     0.37401   0.88463   0.05778   0.00000  Uiso   1.00
C219   C     0.38453   0.90340  -0.00489   0.00000  Uiso   1.00
C220   C     0.36581   0.88247   0.93173   0.00000  Uiso   1.00
C221   C     0.33634   0.84346   0.93144   0.00000  Uiso   1.00
C222   C     0.29121   0.78445   0.99544   0.00000  Uiso   1.00
N223   N     0.26944   0.76496   0.93545   0.00000  Uiso   1.00
N224   N     0.23571   0.73048   0.93708   0.00000  Uiso   1.00
C225   C     0.22227   0.71398   0.99869   0.00000  Uiso   1.00
N226   N     0.24471   0.73298   0.05857   0.00000  Uiso   1.00
N227   N     0.27847   0.76747   0.05694   0.00000  Uiso   1.00
C228   C     0.18166   0.67867   1.00092   0.00000  Uiso   1.00
C229   C     0.16609   0.66307   0.06493   0.00000  Uiso   1.00
C230   C     0.12606   0.63258   0.06711   0.00000  Uiso   1.00
C231   C     0.10111   0.61708   1.00539   0.00000  Uiso   1.00
C232   C     0.11685   0.63179   0.94139   0.00000  Uiso   1.00
C233   C     0.15686   0.66204   0.93909   0.00000  Uiso   1.00
H234   H     0.33839   0.83187   0.10662   0.00000  Uiso   1.00
H235   H     0.39027   0.89976   0.10669   0.00000  Uiso   1.00
H236   H     0.37560   0.89590   0.88246   0.00000  Uiso   1.00
H237   H     0.32293   0.82772   0.88188   0.00000  Uiso   1.00
H238   H     0.18501   0.67405   0.11305   0.00000  Uiso   1.00
H239   H     0.11504   0.61979   0.11648   0.00000  Uiso   1.00
H240   H     0.09880   0.61840   0.89287   0.00000  Uiso   1.00
H241   H     0.16859   0.67220   0.88880   0.00000  Uiso   1.00
C242   C     0.51256   0.82422  -0.00133   0.00000  Uiso   1.00
C243   C     0.51956   0.84482   0.06101   0.00000  Uiso   1.00
C244   C     0.52739   0.88044   0.05895   0.00000  Uiso   1.00
C245   C     0.52819   0.89611  -0.00511   0.00000  Uiso   1.00
C246   C     0.51783   0.87429   0.93281   0.00000  Uiso   1.00
C247   C     0.50981   0.83846   0.93469   0.00000  Uiso   1.00
C248   C     0.51037   0.78923  -0.00006   0.00000  Uiso   1.00
N249   N     0.50629   0.77078   0.93937   0.00000  Uiso   1.00
N250   N     0.50715   0.74081   0.93971   0.00000  Uiso   1.00
C251   C     0.51216   0.72801   0.00064   0.00000  Uiso   1.00
N252   N     0.51620   0.74641   0.06141   0.00000  Uiso   1.00
N253   N     0.51534   0.77644   0.06106   0.00000  Uiso   1.00
C254   C     0.51586   0.69635   0.00016   0.00000  Uiso   1.00
C255   C     0.52312   0.68430   0.06296   0.00000  Uiso   1.00
C256   C     0.53115   0.65747   0.06178   0.00000  Uiso   1.00
C257   C     0.53169   0.64192  -0.00182   0.00000  Uiso   1.00
C258   C     0.52193   0.65204   0.93556   0.00000  Uiso   1.00
C259   C     0.51372   0.67883   0.93655   0.00000  Uiso   1.00
H260   H     0.51910   0.83357   0.11146   0.00000  Uiso   1.00
H261   H     0.53193   0.89547   0.10773   0.00000  Uiso   1.00
H262   H     0.51497   0.88453   0.88325   0.00000  Uiso   1.00
H263   H     0.50150   0.82198   0.88608   0.00000  Uiso   1.00
H264   H     0.52236   0.69533   0.11309   0.00000  Uiso   1.00
H265   H     0.53583   0.64802   0.11082   0.00000  Uiso   1.00
H266   H     0.51940   0.63838   0.88621   0.00000  Uiso   1.00
H267   H     0.50539   0.68555   0.88757   0.00000  Uiso   1.00
C268   C     0.49578   0.31584   0.98706   0.00000  Uiso   1.00
C269   C     0.51947   0.34792   0.03284   0.00000  Uiso   1.00
C270   C     0.50948   0.37343   0.04042   0.00000  Uiso   1.00
C271   C     0.47640   0.36770   1.00149   0.00000  Uiso   1.00
C272   C     0.45438   0.33711   0.95324   0.00000  Uiso   1.00
C273   C     0.46389   0.31154   0.94609   0.00000  Uiso   1.00
C274   C     0.50141   0.28520   0.98279   0.00000  Uiso   1.00
N275   N     0.47504   0.25422   0.94101   0.00000  Uiso   1.00
N276   N     0.47554   0.22417   0.94078   0.00000  Uiso   1.00
C277   C     0.50245   0.22333   0.98232   0.00000  Uiso   1.00
N278   N     0.53007   0.25483   0.02306   0.00000  Uiso   1.00
N279   N     0.52957   0.28527   0.02328   0.00000  Uiso   1.00
C280   C     0.49788   0.18696   0.98651   0.00000  Uiso   1.00
C281   C     0.52198   0.18215   0.03282   0.00000  Uiso   1.00
C282   C     0.51260   0.14589   0.04171   0.00000  Uiso   1.00
C283   C     0.47949   0.11423   1.00384   0.00000  Uiso   1.00
C284   C     0.45757   0.11956   0.95403   0.00000  Uiso   1.00
C285   C     0.46651   0.15535   0.94557   0.00000  Uiso   1.00
H286   H     0.54577   0.35362   0.06197   0.00000  Uiso   1.00
H287   H     0.52849   0.39853   0.07450   0.00000  Uiso   1.00
H288   H     0.42992   0.33311   0.92066   0.00000  Uiso   1.00
H289   H     0.44602   0.28827   0.90782   0.00000  Uiso   1.00
H290   H     0.54798   0.20618   0.06168   0.00000  Uiso   1.00
H291   H     0.53195   0.14269   0.07627   0.00000  Uiso   1.00
H292   H     0.43345   0.09594   0.92148   0.00000  Uiso   1.00
H293   H     0.44844   0.15805   0.90672   0.00000  Uiso   1.00
loop_
_geom_bond_atom_site_label_1
_geom_bond_atom_site_label_2
_geom_bond_distance
_geom_bond_site_symmetry_2
_ccdc_geom_bond_type
C0     O4      1.284   .     A
C0     O5      1.279   1_554 A
C0     C271    1.470   1_554 S
Ho1    O4      2.184   .     S
Ho1    O6      2.190   .     S
Ho1    O7      2.169   .     S
Ho1    O10     2.171   .     S
Ho1    O17     2.222   .     S
Ho1    O5      2.175   1_554 S
Ho1    O15     2.138   1_554 S
C2     O12     1.285   .     A
C2     O13     1.279   1_556 A
C2     C257    1.463   1_556 S
Ho3    O11     2.212   .     S
Ho3    O12     2.177   .     S
Ho3    O14     2.203   .     S
Ho3    O15     2.114   .     S
Ho3    O16     2.191   .     S
Ho3    O7      2.144   1_556 S
Ho3    O13     2.155   1_556 S
O5     C0      1.279   1_556 A
O5     Ho1     2.175   1_556 S
O6     C8      1.230   .     D
O7     C8      1.387   .     S
O7     Ho3     2.144   1_554 S
C8     C63     1.466   .     S
C9     O14     1.232   .     D
C9     O15     1.388   .     S
C9     C75     1.468   .     S
O10    C19     1.293   .     A
O11    C19     1.305   1_556 A
O13    C2      1.279   1_554 A
O13    Ho3     2.155   1_554 S
O15    Ho1     2.138   1_556 S
O16    C18     1.298   .     A
O17    C18     1.308   1_554 A
C18    O17     1.308   1_556 A
C18    C141    1.468   1_556 S
C19    O11     1.305   1_554 A
C19    C205    1.455   1_554 S
C20    O24     1.286   .     A
C20    C153    1.473   .     S
C20    O25     1.275   1_554 A
Ho21   O24     2.191   .     S
Ho21   O26     2.226   .     S
Ho21   O30     2.182   .     S
Ho21   O25     2.157   1_554 S
Ho21   O27     2.132   1_455 S
Ho21   O35     2.147   1_554 S
Ho21   O37     2.208   1_455 S
C22    O32     1.286   .     A
C22    C193    1.468   .     S
C22    O33     1.276   1_556 A
Ho23   O32     2.189   .     S
Ho23   O34     2.215   .     S
Ho23   O36     2.189   .     S
Ho23   O27     2.133   1_556 S
Ho23   O31     2.212   1_655 S
Ho23   O33     2.157   1_556 S
Ho23   O35     2.123   1_655 S
O25    C20     1.275   1_556 A
O25    Ho21    2.157   1_556 S
O26    C28     1.229   1_455 D
O27    C28     1.377   .     S
O27    Ho21    2.132   1_655 S
O27    Ho23    2.133   1_554 S
C28    O26     1.229   1_655 D
C28    C101    1.474   1_655 S
C29    O35     1.384   .     S
C29    O34     1.229   1_455 D
C29    C89     1.472   1_455 S
O30    C39     1.297   .     A
O31    Ho23    2.212   1_455 S
O31    C39     1.306   1_556 A
O33    C22     1.276   1_554 A
O33    Ho23    2.157   1_554 S
O34    C29     1.229   1_655 D
O35    Ho21    2.147   1_556 S
O35    Ho23    2.123   1_455 S
O36    C38     1.298   .     A
O37    Ho21    2.208   1_655 S
O37    C38     1.304   1_554 A
C38    O37     1.304   1_556 A
C38    C167    1.455   1_556 S
C39    O31     1.306   1_554 A
C39    C231    1.458   1_554 S
C40    O44     1.286   .     A
C40    O45     1.278   1_556 A
C40    C245    1.468   1_556 S
Ho41   O44     2.188   .     S
Ho41   O46     2.196   .     S
Ho41   O50     2.180   .     S
Ho41   O45     2.165   1_556 S
Ho41   O47     2.148   1_565 S
Ho41   O55     2.131   1_556 S
Ho41   O57     2.212   1_565 S
C42    O52     1.285   .     A
C42    O53     1.276   1_554 A
C42    C283    1.470   1_554 S
Ho43   O52     2.187   .     S
Ho43   O54     2.217   .     S
Ho43   O56     2.176   .     S
Ho43   O47     2.145   1_554 S
Ho43   O51     2.219   1_545 S
Ho43   O53     2.170   1_554 S
Ho43   O55     2.130   1_545 S
O45    C40     1.278   1_554 A
O45    Ho41    2.165   1_554 S
O46    C48     1.232   1_565 D
O47    C48     1.385   .     S
O47    Ho41    2.148   1_545 S
O47    Ho43    2.145   1_556 S
C48    C127    1.466   .     S
C48    O46     1.232   1_545 D
C49    O54     1.229   .     D
C49    C115    1.470   .     S
C49    O55     1.379   1_545 S
O50    C59     1.296   .     A
O51    Ho43    2.219   1_565 S
O51    C59     1.308   1_554 A
O53    C42     1.276   1_556 A
O53    Ho43    2.170   1_556 S
O55    Ho41    2.131   1_554 S
O55    Ho43    2.130   1_565 S
O55    C49     1.379   1_565 S
O56    C58     1.294   .     A
O57    Ho41    2.212   1_545 S
O57    C58     1.305   1_556 A
C58    O57     1.305   1_554 A
C58    C179    1.452   1_554 S
C59    O51     1.308   1_556 A
C59    C219    1.462   1_556 S
C60    C61     1.400   .     A
C60    C65     1.414   .     A
C60    C66     1.477   .     S
C61    C62     1.385   .     A
C61    H78     1.082   .     S
C62    C63     1.398   .     A
C62    H79     1.081   .     S
C63    C64     1.406   .     A
C64    C65     1.404   .     A
C64    H80     1.086   .     S
C65    H81     1.085   .     S
C66    N67     1.353   .     A
C66    N71     1.363   .     A
N67    N68     1.330   .     A
N68    C69     1.362   .     A
C69    N70     1.354   .     A
C69    C72     1.479   .     S
N70    N71     1.331   .     A
C72    C73     1.415   .     A
C72    C77     1.400   .     A
C73    C74     1.406   .     A
C73    H82     1.084   .     S
C74    C75     1.403   .     A
C74    H83     1.084   .     S
C75    C76     1.401   .     A
C76    C77     1.385   .     A
C76    H84     1.083   .     S
C77    H85     1.083   .     S
C86    C91     1.408   .     A
C86    C92     1.487   .     S
C86    C87     1.408   1_655 A
C87    C88     1.402   .     A
C87    H104    1.085   .     S
C87    C86     1.408   1_455 A
C88    H105    1.084   .     S
C88    C89     1.406   1_455 A
C89    C90     1.401   .     A
C89    C88     1.406   1_655 A
C89    C29     1.472   1_655 S
C90    C91     1.399   .     A
C90    H106    1.083   .     S
C91    H107    1.083   .     S
C92    N93     1.360   .     A
C92    N97     1.359   1_655 A
N93    N94     1.333   .     A
N94    C95     1.359   .     A
C95    C98     1.487   .     S
C95    N96     1.359   1_655 A
N96    N97     1.333   .     A
N96    C95     1.359   1_455 A
N97    C92     1.359   1_455 A
C98    C103    1.407   .     A
C98    C99     1.407   1_655 A
C99    C100    1.399   .     A
C99    H108    1.083   .     S
C99    C98     1.407   1_455 A
C100   C101    1.403   .     A
C100   H109    1.084   .     S
C101   C102    1.407   1_455 A
C101   C28     1.474   1_455 S
C102   C103    1.402   .     A
C102   H110    1.084   .     S
C102   C101    1.407   1_655 A
C103   H111    1.084   .     S
C112   C113    1.402   .     A
C112   C118    1.481   .     S
C112   C117    1.412   1_545 A
C113   C114    1.390   .     A
C113   H130    1.083   .     S
C114   C115    1.396   .     A
C114   H131    1.081   .     S
C115   C116    1.410   1_545 A
C116   C117    1.406   .     A
C116   H132    1.086   .     S
C116   C115    1.410   1_565 A
C117   H133    1.086   .     S
C117   C112    1.412   1_565 A
C118   N123    1.362   .     A
C118   N119    1.355   1_545 A
N119   N120    1.331   .     A
N119   C118    1.355   1_565 A
N120   C121    1.362   1_565 A
C121   N122    1.355   .     A
C121   C124    1.481   .     S
C121   N120    1.362   1_545 A
N122   N123    1.331   .     A
C124   C125    1.413   .     A
C124   C129    1.402   1_545 A
C125   C126    1.406   .     A
C125   H134    1.086   .     S
C126   C127    1.409   .     A
C126   H135    1.087   .     S
C127   C128    1.395   1_545 A
C128   C129    1.390   .     A
C128   H136    1.081   .     S
C128   C127    1.395   1_565 A
C129   H137    1.083   .     S
C129   C124    1.402   1_565 A
C138   C143    1.406   .     A
C138   C144    1.483   .     S
C138   C139    1.406   1_556 A
C139   C140    1.397   .     A
C139   H156    1.083   .     S
C139   C138    1.406   1_554 A
C140   C141    1.401   .     A
C140   H157    1.083   .     S
C141   C142    1.406   1_554 A
C141   C18     1.468   1_554 S
C142   C143    1.401   .     A
C142   H158    1.084   .     S
C142   C141    1.406   1_556 A
C143   H159    1.084   .     S
C144   N145    1.359   .     A
C144   N149    1.358   1_556 A
N145   N146    1.334   .     A
N146   C147    1.361   1_556 A
C147   N148    1.356   .     A
C147   C150    1.481   .     S
C147   N146    1.361   1_554 A
N148   N149    1.330   .     A
N149   C144    1.358   1_554 A
C150   C151    1.410   .     A
C150   C155    1.403   1_554 A
C151   C152    1.400   .     A
C151   H160    1.083   .     S
C152   C153    1.401   .     A
C152   H161    1.083   .     S
C153   C154    1.406   1_554 A
C154   C155    1.394   .     A
C154   H162    1.083   .     S
C154   C153    1.406   1_556 A
C155   H163    1.085   .     S
C155   C150    1.403   1_556 A
C164   C169    1.405   .     A
C164   C170    1.477   .     S
C164   C165    1.407   1_554 A
C165   C166    1.398   .     A
C165   H182    1.083   .     S
C165   C164    1.407   1_556 A
C166   H183    1.085   .     S
C166   C167    1.402   1_556 A
C167   C168    1.399   .     A
C167   C166    1.402   1_554 A
C167   C38     1.455   1_554 S
C168   C169    1.394   .     A
C168   H184    1.084   .     S
C169   H185    1.083   .     S
C170   N171    1.358   .     A
C170   N175    1.357   1_554 A
N171   N172    1.330   .     A
N172   C173    1.357   1_554 A
C173   N174    1.359   .     A
C173   C176    1.477   .     S
C173   N172    1.357   1_556 A
N174   N175    1.331   .     A
N175   C170    1.357   1_556 A
C176   C177    1.404   .     A
C176   C181    1.407   1_556 A
C177   C178    1.394   .     A
C177   H186    1.083   .     S
C178   C179    1.400   .     A
C178   H187    1.085   .     S
C179   C180    1.403   1_556 A
C179   C58     1.452   1_556 S
C180   C181    1.398   .     A
C180   H188    1.085   .     S
C180   C179    1.403   1_554 A
C181   H189    1.084   .     S
C181   C176    1.407   1_554 A
C190   C195    1.402   .     A
C190   C196    1.477   .     S
C190   C191    1.411   1_554 A
C191   C192    1.398   .     A
C191   H208    1.083   .     S
C191   C190    1.411   1_556 A
C192   C193    1.399   .     A
C192   H209    1.083   .     S
C193   C194    1.406   1_556 A
C194   C195    1.393   .     A
C194   H210    1.083   .     S
C194   C193    1.406   1_554 A
C195   H211    1.085   .     S
C196   N197    1.361   .     A
C196   N201    1.354   1_554 A
N197   N198    1.334   .     A
N198   C199    1.360   .     A
C199   C202    1.480   .     S
C199   N200    1.356   1_554 A
N200   N201    1.328   .     A
N200   C199    1.356   1_556 A
N201   C196    1.354   1_556 A
C202   C207    1.405   .     A
C202   C203    1.407   1_554 A
C203   C204    1.395   .     A
C203   H212    1.082   .     S
C203   C202    1.407   1_556 A
C204   C205    1.398   .     A
C204   H213    1.084   .     S
C205   C206    1.405   1_556 A
C205   C19     1.455   1_556 S
C206   C207    1.399   .     A
C206   H214    1.085   .     S
C206   C205    1.405   1_554 A
C207   H215    1.083   .     S
C216   C221    1.408   .     A
C216   C222    1.481   .     S
C216   C217    1.404   1_556 A
C217   C218    1.396   .     A
C217   H234    1.083   .     S
C217   C216    1.404   1_554 A
C218   C219    1.402   .     A
C218   H235    1.084   .     S
C219   C220    1.405   1_554 A
C219   C59     1.462   1_554 S
C220   C221    1.402   .     A
C220   H236    1.085   .     S
C220   C219    1.405   1_556 A
C221   H237    1.084   .     S
C222   N223    1.357   .     A
C222   N227    1.359   1_556 A
N223   N224    1.331   .     A
N224   C225    1.359   .     A
C225   C228    1.481   .     S
C225   N226    1.358   1_556 A
N226   N227    1.332   .     A
N226   C225    1.358   1_554 A
N227   C222    1.359   1_554 A
C228   C233    1.406   .     A
C228   C229    1.407   1_556 A
C229   C230    1.399   .     A
C229   H238    1.084   .     S
C229   C228    1.407   1_554 A
C230   H239    1.085   .     S
C230   C231    1.403   1_554 A
C231   C232    1.400   .     A
C231   C230    1.403   1_556 A
C231   C39     1.458   1_556 S
C232   C233    1.397   .     A
C232   H240    1.084   .     S
C233   H241    1.083   .     S
C242   C243    1.404   .     A
C242   C248    1.477   .     S
C242   C247    1.409   1_554 A
C243   C244    1.392   .     A
C243   H260    1.085   .     S
C244   C245    1.404   .     A
C244   H261    1.083   .     S
C245   C246    1.402   1_554 A
C245   C40     1.468   1_554 S
C246   C247    1.397   .     A
C246   H262    1.083   .     S
C246   C245    1.402   1_556 A
C247   H263    1.084   .     S
C247   C242    1.409   1_556 A
C248   N253    1.359   .     A
C248   N249    1.356   1_554 A
N249   N250    1.330   .     A
N249   C248    1.356   1_556 A
N250   C251    1.356   1_556 A
C251   N252    1.359   .     A
C251   C254    1.477   .     S
C251   N250    1.356   1_554 A
N252   N253    1.332   .     A
C254   C255    1.405   .     A
C254   C259    1.409   1_554 A
C255   C256    1.392   .     A
C255   H264    1.084   .     S
C256   C257    1.402   .     A
C256   H265    1.083   .     S
C257   C258    1.402   1_554 A
C257   C2      1.463   1_554 S
C258   C259    1.396   .     A
C258   H266    1.084   .     S
C258   C257    1.402   1_556 A
C259   H267    1.084   .     S
C259   C254    1.409   1_556 A
C268   C273    1.412   .     A
C268   C274    1.488   .     S
C268   C269    1.408   1_556 A
C269   C270    1.406   .     A
C269   H286    1.085   .     S
C269   C268    1.408   1_554 A
C270   H287    1.085   .     S
C270   C271    1.409   1_554 A
C271   C272    1.394   .     A
C271   C270    1.409   1_556 A
C271   C0      1.470   1_556 S
C272   C273    1.392   .     A
C272   H288    1.082   .     S
C273   H289    1.083   .     S
C274   N275    1.353   .     A
C274   N279    1.364   1_556 A
N275   N276    1.324   .     A
N276   C277    1.353   .     A
C277   C280    1.488   .     S
C277   N278    1.365   1_556 A
N278   N279    1.341   .     A
N278   C277    1.365   1_554 A
N279   C274    1.364   1_554 A
C280   C285    1.412   .     A
C280   C281    1.407   1_556 A
C281   C282    1.406   .     A
C281   H290    1.084   .     S
C281   C280    1.407   1_554 A
C282   H291    1.084   .     S
C282   C283    1.409   1_554 A
C283   C284    1.395   .     A
C283   C282    1.409   1_556 A
C283   C42     1.470   1_556 S
C284   C285    1.392   .     A
C284   H292    1.083   .     S
C285   H293    1.083   .     S
