data_kag+N173+E183
_audit_creation_date              2025-01-21
_audit_creation_method            'Materials Studio'
_symmetry_space_group_name_H-M    'P1'
_symmetry_Int_Tables_number       1
_symmetry_cell_setting            triclinic
loop_
_symmetry_equiv_pos_as_xyz
  x,y,z
_cell_length_a                    28.3937
_cell_length_b                    28.6314
_cell_length_c                    11.7804
_cell_angle_alpha                 99.4611
_cell_angle_beta                  116.4617
_cell_angle_gamma                 120.7090
loop_
_atom_site_label
_atom_site_type_symbol
_atom_site_fract_x
_atom_site_fract_y
_atom_site_fract_z
_atom_site_U_iso_or_equiv
_atom_site_adp_type
_atom_site_occupancy
Gd0    Gd    0.52847   0.39951   0.93196   0.00000  Uiso   1.00
Gd1    Gd    0.61211   0.59759   0.03348   0.00000  Uiso   1.00
O2     O     0.63140   0.59061   0.23460   0.00000  Uiso   1.00
O3     O     0.58522   0.49760   0.10049   0.00000  Uiso   1.00
O4     O     0.45832   0.41741  -0.07441   0.00000  Uiso   1.00
O5     O     0.49969   0.49875   0.88891   0.00000  Uiso   1.00
O6     O     0.59805   0.37904   0.98676   0.00000  Uiso   1.00
O7     O     0.55521   0.37269   0.10148   0.00000  Uiso   1.00
O8     O     0.52114   0.41866   0.75052   0.00000  Uiso   1.00
C9     C     0.59036   0.36358   1.07699   0.00000  Uiso   1.00
O10    O     0.52676   0.49948   0.82088   0.00000  Uiso   1.00
O11    O     0.63228   0.49941   1.07176   0.00000  Uiso   1.00
C12    C     0.46088   0.46266  -0.08242   0.00000  Uiso   1.00
O13    O     0.67609   0.57487   0.02483   0.00000  Uiso   1.00
O14    O     0.55396   0.62952   0.01136   0.00000  Uiso   1.00
O15    O     0.58929   0.63399   0.88242   0.00000  Uiso   1.00
C16    C     0.60641   0.53693   0.21990   0.00000  Uiso   1.00
C17    C     0.56081   0.64748  -0.07646   0.00000  Uiso   1.00
C18    C     0.66903   0.52836   0.03378   0.00000  Uiso   1.00
C19    C     0.53392   0.46797   0.74796   0.00000  Uiso   1.00
Gd20   Gd    0.02525   0.54282   0.99300   0.00000  Uiso   1.00
Gd21   Gd    0.13509   0.46795   0.04575   0.00000  Uiso   1.00
O22    O     0.16533   0.51775   0.26257   0.00000  Uiso   1.00
O23    O     0.09994   0.53464   0.14265   0.00000  Uiso   1.00
O24    O     0.14372   0.59951   0.13629   0.00000  Uiso   1.00
O25    O     0.17274   0.55759   0.03479   0.00000  Uiso   1.00
O26    O     0.92156   0.51337   0.88543   0.00000  Uiso   1.00
O27    O     0.99369   0.55867   0.12485   0.00000  Uiso   1.00
O28    O     0.01896   0.51379   0.79552   0.00000  Uiso   1.00
C29    C     0.93231   0.53210   0.00783   0.00000  Uiso   1.00
O30    O     0.07937   0.48433   0.87611   0.00000  Uiso   1.00
O31    O     0.97644   0.44622   0.96637   0.00000  Uiso   1.00
C32    C     0.17618   0.60350   0.08457   0.00000  Uiso   1.00
O33    O     0.02276   0.40032   0.96350   0.00000  Uiso   1.00
O34    O     0.23538   0.51308   0.08630   0.00000  Uiso   1.00
O35    O     0.14079   0.42598   0.88097   0.00000  Uiso   1.00
C36    C     0.12796   0.53005   0.25497   0.00000  Uiso   1.00
C37    C     0.20781   0.46967   0.96494   0.00000  Uiso   1.00
C38    C     0.97662   0.40099   0.95659   0.00000  Uiso   1.00
C39    C     0.04766   0.49365   0.77951   0.00000  Uiso   1.00
Gd40   Gd    0.47158   0.96133   0.96409   0.00000  Uiso   1.00
Gd41   Gd    0.69523   0.07253   0.15024   0.00000  Uiso   1.00
O42    O     0.68208   0.06930   0.32526   0.00000  Uiso   1.00
O43    O     0.57444   0.99363   0.13912   0.00000  Uiso   1.00
O44    O     0.54470   0.06689   0.10619   0.00000  Uiso   1.00
O45    O     0.62402   0.09584   1.07094   0.00000  Uiso   1.00
O46    O     0.39295   0.85964   0.88341   0.00000  Uiso   1.00
O47    O     0.44062   0.92890   0.09591   0.00000  Uiso   1.00
O48    O     0.47878   0.96998   0.78086   0.00000  Uiso   1.00
C49    C     0.39649   0.87043   0.99823   0.00000  Uiso   1.00
O50    O     0.58641   0.02595   0.95849   0.00000  Uiso   1.00
O51    O     0.52058   0.91645   0.96683   0.00000  Uiso   1.00
C52    C     0.59940   0.11021   0.12430   0.00000  Uiso   1.00
O53    O     0.63053   0.96737   0.03600   0.00000  Uiso   1.00
O54    O     0.76112   0.17101   0.19861   0.00000  Uiso   1.00
O55    O     0.72670   0.09614   1.01440   0.00000  Uiso   1.00
C56    C     0.61943   0.02927   0.27825   0.00000  Uiso   1.00
C57    C     0.76099   0.15503   0.08990   0.00000  Uiso   1.00
C58    C     0.56900   0.91748   0.98060   0.00000  Uiso   1.00
C59    C     0.54015   0.00054   0.82060   0.00000  Uiso   1.00
C60    C     0.59443   0.52176   0.32287   0.00000  Uiso   1.00
C61    C     0.58444   0.53117   0.51943   0.00000  Uiso   1.00
C62    C     0.56061   0.47245   0.45334   0.00000  Uiso   1.00
S63    S     0.58304   0.55351   0.65920   0.00000  Uiso   1.00
S64    S     0.53127   0.42451   0.51588   0.00000  Uiso   1.00
S65    S     0.61309   0.57882   0.45603   0.00000  Uiso   1.00
S66    S     0.56026   0.44994   0.31069   0.00000  Uiso   1.00
C67    C     0.54807   0.48165   0.64652   0.00000  Uiso   1.00
C68    C     0.05198   0.48898   0.66007   0.00000  Uiso   1.00
C69    C     0.10606   0.50538   0.54254   0.00000  Uiso   1.00
C70    C     0.05566   0.50838   0.46973   0.00000  Uiso   1.00
S71    S     0.15865   0.51989   0.49816   0.00000  Uiso   1.00
S72    S     0.04590   0.52342   0.33159   0.00000  Uiso   1.00
S73    S     0.11539   0.48901   0.67765   0.00000  Uiso   1.00
S74    S     0.00693   0.49894   0.52436   0.00000  Uiso   1.00
C75    C     0.11343   0.52869   0.35945   0.00000  Uiso   1.00
C76    C     0.60326   0.02528   0.38075   0.00000  Uiso   1.00
C77    C     0.56204   0.02663   0.52521   0.00000  Uiso   1.00
C78    C     0.59770   1.00694   0.57311   0.00000  Uiso   1.00
S79    S     0.52478   0.03101   0.60173   0.00000  Uiso   1.00
S80    S     0.60308   0.98815   0.70552   0.00000  Uiso   1.00
S81    S     0.55730   0.04555   0.39226   0.00000  Uiso   1.00
S82    S     0.63498   1.00220   0.49743   0.00000  Uiso   1.00
C83    C     0.55563   0.00643   0.71614   0.00000  Uiso   1.00
C84    C     0.41039   0.46546  -0.08632   0.00000  Uiso   1.00
C85    C     0.30390   0.43602   0.86786   0.00000  Uiso   1.00
C86    C     0.35465   0.49990   0.95791   0.00000  Uiso   1.00
S87    S     0.22350   0.39964   0.82136   0.00000  Uiso   1.00
S88    S     0.33524   0.53912   1.02203   0.00000  Uiso   1.00
S89    S     0.32563   0.39633  -0.18337   0.00000  Uiso   1.00
S90    S     0.43597   0.53633   1.01092   0.00000  Uiso   1.00
C91    C     0.25107   0.46984   0.92930   0.00000  Uiso   1.00
C92    C     0.92279   0.34800   0.95207   0.00000  Uiso   1.00
C93    C     0.85763   0.25254   0.95919   0.00000  Uiso   1.00
C94    C     0.85535   0.29282   0.03034   0.00000  Uiso   1.00
S95    S     0.81919   0.18130   0.94862   0.00000  Uiso   1.00
S96    S     0.81758   0.27149   0.11159   0.00000  Uiso   1.00
S97    S     0.90118   0.27608   0.89014   0.00000  Uiso   1.00
S98    S     0.89375   0.36375   0.04128   0.00000  Uiso   1.00
C99    C     0.79719   0.20020   1.05271   0.00000  Uiso   1.00
C100   C     0.87781   0.52494   0.01024   0.00000  Uiso   1.00
C101   C     0.77617   0.51351   0.94159   0.00000  Uiso   1.00
C102   C     0.80305   0.51503   0.07218   0.00000  Uiso   1.00
S103   S     0.70943   0.51334   0.86970   0.00000  Uiso   1.00
S104   S     0.76534   0.51348   0.15204   0.00000  Uiso   1.00
S105   S     0.81474   0.51751   0.86423   0.00000  Uiso   1.00
S106   S     0.87601   0.52364   0.15365   0.00000  Uiso   1.00
C107   C     0.70779   0.51358   0.01356   0.00000  Uiso   1.00
C108   C     0.35252   0.82050   0.01558   0.00000  Uiso   1.00
C109   C     0.26254   0.71880   0.96973   0.00000  Uiso   1.00
C110   C     0.29866   0.76086   0.11219   0.00000  Uiso   1.00
S111   S     0.19781   0.64223   0.90116   0.00000  Uiso   1.00
S112   S     0.27513   0.73355   0.21160   0.00000  Uiso   1.00
S113   S     0.28564   0.74437   0.86877   0.00000  Uiso   1.00
S114   S     0.36616   0.83771   0.18126   0.00000  Uiso   1.00
C115   C     0.21263   0.65738   0.06722   0.00000  Uiso   1.00
C116   C     0.55470   0.85787   0.93730   0.00000  Uiso   1.00
C117   C     0.52078   0.75701  -0.08887   0.00000  Uiso   1.00
C118   C     0.56736   0.78069   0.88398   0.00000  Uiso   1.00
S119   S     0.49368   0.69118  -0.07780   0.00000  Uiso   1.00
S120   S     0.59347   0.74156   0.85639   0.00000  Uiso   1.00
S121   S     0.49829   0.79858  -0.05181   0.00000  Uiso   1.00
S122   S     0.60156   0.85108   0.89273   0.00000  Uiso   1.00
C123   C     0.54519   0.68720   0.88938   0.00000  Uiso   1.00
C124   C     0.61241   0.33047   0.13228   0.00000  Uiso   1.00
C125   C     0.64361   0.26501   1.14461   0.00000  Uiso   1.00
C126   C     0.60542   0.25047   0.19287   0.00000  Uiso   1.00
S127   S     0.66538   0.22115   1.11857   0.00000  Uiso   1.00
S128   S     0.58065   0.18875   0.22230   0.00000  Uiso   1.00
S129   S     0.65976   0.32031   1.09547   0.00000  Uiso   1.00
S130   S     0.57660   0.28912   0.20201   0.00000  Uiso   1.00
C131   C     0.61910   0.17260   0.16478   0.00000  Uiso   1.00
loop_
_geom_bond_atom_site_label_1
_geom_bond_atom_site_label_2
_geom_bond_distance
_geom_bond_site_symmetry_2
_ccdc_geom_bond_type
Gd0    O6      2.199   .     S
Gd0    O8      2.240   .     S
Gd0    O11     2.257   .     S
Gd0    O3      2.263   1_556 S
Gd0    O4      2.271   1_556 S
Gd0    O7      2.214   1_556 S
Gd1    O2      2.250   .     S
Gd1    O13     2.255   .     S
Gd1    O14     2.206   .     S
Gd1    O5      2.333   1_554 S
Gd1    O10     2.316   1_554 S
Gd1    O15     2.224   1_554 S
O2     C16     1.259   .     A
O3     C16     1.281   .     A
O3     Gd0     2.263   1_554 S
O4     C12     1.282   .     A
O4     Gd0     2.271   1_554 S
O5     Gd1     2.333   1_556 S
O5     C12     1.296   1_556 A
O6     C9      1.279   .     A
O7     Gd0     2.214   1_554 S
O7     C9      1.283   1_554 A
O8     C19     1.275   .     A
C9     O7      1.283   1_556 A
C9     C124    1.470   1_556 S
O10    C19     1.297   .     A
O10    Gd1     2.316   1_556 S
O11    C18     1.277   1_556 A
C12    C84     1.457   .     S
C12    O5      1.296   1_554 A
O13    C18     1.271   .     A
O14    C17     1.275   .     A
O15    Gd1     2.224   1_556 S
O15    C17     1.282   1_556 A
C16    C60     1.472   .     S
C17    O15     1.282   1_554 A
C17    C123    1.469   1_554 S
C18    C107    1.457   .     S
C18    O11     1.277   1_554 A
C19    C67     1.471   .     S
Gd20   O28     2.231   .     S
Gd20   O23     2.230   1_556 S
Gd20   O24     2.294   1_556 S
Gd20   O26     2.185   1_455 S
Gd20   O27     2.201   1_456 S
Gd20   O31     2.254   1_455 S
Gd21   O22     2.212   .     S
Gd21   O25     2.275   .     S
Gd21   O34     2.198   .     S
Gd21   O30     2.228   1_554 S
Gd21   O33     2.276   1_554 S
Gd21   O35     2.225   1_554 S
O22    C36     1.251   .     A
O23    C36     1.276   .     A
O23    Gd20    2.230   1_554 S
O24    C32     1.284   .     A
O24    Gd20    2.294   1_554 S
O25    C32     1.283   .     A
O26    Gd20    2.185   1_655 S
O26    C29     1.283   1_556 A
O27    C29     1.295   .     A
O27    Gd20    2.201   1_654 S
O28    C39     1.270   .     A
C29    C100    1.468   .     S
C29    O26     1.283   1_554 A
O30    C39     1.268   .     A
O30    Gd21    2.228   1_556 S
O31    C38     1.284   .     A
O31    Gd20    2.254   1_655 S
C32    C115    1.468   .     S
O33    Gd21    2.276   1_556 S
O33    C38     1.286   1_455 A
O34    C37     1.275   1_554 A
O35    C37     1.284   .     A
O35    Gd21    2.225   1_556 S
C36    C75     1.462   .     S
C37    C91     1.463   .     S
C37    O34     1.275   1_556 A
C38    C92     1.474   .     S
C38    O33     1.286   1_655 A
C39    C68     1.456   .     S
Gd40   O46     2.219   .     S
Gd40   O48     2.298   .     S
Gd40   O51     2.321   .     S
Gd40   O43     2.210   1_556 S
Gd40   O44     2.253   1_566 S
Gd40   O47     2.214   1_556 S
Gd41   O42     2.261   .     S
Gd41   O54     2.216   .     S
Gd41   O45     2.304   1_554 S
Gd41   O50     2.238   1_554 S
Gd41   O53     2.251   1_545 S
Gd41   O55     2.197   1_554 S
O42    C56     1.271   .     A
O43    Gd40    2.210   1_554 S
O43    C56     1.270   1_565 A
O44    C52     1.283   .     A
O44    Gd40    2.253   1_544 S
O45    Gd41    2.304   1_556 S
O45    C52     1.286   1_556 A
O46    C49     1.282   .     A
O47    Gd40    2.214   1_554 S
O47    C49     1.279   1_554 A
O48    C59     1.266   1_565 A
C49    O47     1.279   1_556 A
C49    C108    1.465   1_556 S
O50    C59     1.276   .     A
O50    Gd41    2.238   1_556 S
O51    C58     1.294   .     A
C52    C131    1.481   .     S
C52    O45     1.286   1_554 A
O53    Gd41    2.251   1_565 S
O53    C58     1.284   1_554 A
O54    C57     1.285   .     A
O55    Gd41    2.197   1_556 S
O55    C57     1.281   1_556 A
C56    C76     1.472   .     S
C56    O43     1.270   1_545 A
C57    O55     1.281   1_554 A
C57    C99     1.467   1_554 S
C58    C116    1.470   .     S
C58    O53     1.284   1_556 A
C59    C83     1.487   .     S
C59    O48     1.266   1_545 A
C60    S65     1.715   .     A
C60    S66     1.712   .     A
C61    C62     1.352   .     A
C61    S63     1.691   .     A
C61    S65     1.680   .     A
C62    S64     1.683   .     A
C62    S66     1.692   .     A
S63    C67     1.709   .     A
S64    C67     1.730   .     A
C68    S73     1.718   .     A
C68    S74     1.724   .     A
C69    C70     1.359   .     A
C69    S71     1.676   .     A
C69    S73     1.679   .     A
C70    S72     1.691   .     A
C70    S74     1.694   .     A
S71    C75     1.726   .     A
S72    C75     1.713   .     A
C76    S81     1.721   .     A
C76    S82     1.715   1_545 A
C77    S79     1.702   .     A
C77    S81     1.712   .     A
C77    C78     1.356   1_545 A
C78    S80     1.701   .     A
C78    S82     1.698   .     A
C78    C77     1.356   1_565 A
S79    C83     1.723   .     A
S80    C83     1.719   1_565 A
S82    C76     1.715   1_565 A
C83    S80     1.719   1_545 A
C84    S89     1.719   .     A
C84    S90     1.716   1_554 A
C85    C86     1.362   .     A
C85    S87     1.693   .     A
C85    S89     1.691   1_556 A
C86    S88     1.691   .     A
C86    S90     1.688   .     A
S87    C91     1.713   .     A
S88    C91     1.720   .     A
S89    C85     1.691   1_554 A
S90    C84     1.716   1_556 A
C92    S97     1.722   .     A
C92    S98     1.728   1_556 A
C93    S95     1.700   .     A
C93    S97     1.694   .     A
C93    C94     1.358   1_556 A
C94    S96     1.696   .     A
C94    S98     1.690   .     A
C94    C93     1.358   1_554 A
S95    C99     1.731   .     A
S96    C99     1.718   1_554 A
S98    C92     1.728   1_554 A
C99    S96     1.718   1_556 A
C99    C57     1.467   1_556 S
C100   S106    1.719   .     A
C100   S105    1.720   1_554 A
C101   S103    1.693   .     A
C101   S105    1.685   .     A
C101   C102    1.360   1_556 A
C102   S104    1.702   .     A
C102   S106    1.703   .     A
C102   C101    1.360   1_554 A
S103   C107    1.715   1_556 A
S104   C107    1.721   .     A
S105   C100    1.720   1_556 A
C107   S103    1.715   1_554 A
C108   S114    1.737   .     A
C108   S113    1.719   1_554 A
C108   C49     1.465   1_554 S
C109   S111    1.678   .     A
C109   S113    1.695   .     A
C109   C110    1.363   1_556 A
C110   S112    1.701   .     A
C110   S114    1.700   .     A
C110   C109    1.363   1_554 A
S111   C115    1.730   1_556 A
S112   C115    1.714   .     A
S113   C108    1.719   1_556 A
C115   S111    1.730   1_554 A
C116   S122    1.714   .     A
C116   S121    1.715   1_556 A
C117   S119    1.688   .     A
C117   S121    1.694   .     A
C117   C118    1.358   1_554 A
C118   S120    1.689   .     A
C118   S122    1.691   .     A
C118   C117    1.358   1_556 A
S119   C123    1.721   1_554 A
S120   C123    1.717   .     A
S121   C116    1.715   1_554 A
C123   S119    1.721   1_556 A
C123   C17     1.469   1_556 S
C124   S130    1.716   .     A
C124   S129    1.720   1_554 A
C124   C9      1.470   1_554 S
C125   S127    1.699   .     A
C125   S129    1.688   .     A
C125   C126    1.356   1_556 A
C126   S128    1.699   .     A
C126   S130    1.694   .     A
C126   C125    1.356   1_554 A
S127   C131    1.725   1_556 A
S128   C131    1.714   .     A
S129   C124    1.720   1_556 A
C131   S127    1.725   1_554 A
