data_kag+N173+E8
_audit_creation_date              2025-01-21
_audit_creation_method            'Materials Studio'
_symmetry_space_group_name_H-M    'P1'
_symmetry_Int_Tables_number       1
_symmetry_cell_setting            triclinic
loop_
_symmetry_equiv_pos_as_xyz
  x,y,z
_cell_length_a                    27.9670
_cell_length_b                    29.2764
_cell_length_c                    12.5700
_cell_angle_alpha                 102.2794
_cell_angle_beta                  109.0219
_cell_angle_gamma                 124.0256
loop_
_atom_site_label
_atom_site_type_symbol
_atom_site_fract_x
_atom_site_fract_y
_atom_site_fract_z
_atom_site_U_iso_or_equiv
_atom_site_adp_type
_atom_site_occupancy
Gd0    Gd    0.53186   0.40025   0.91260   0.00000  Uiso   1.00
Gd1    Gd    0.58818   0.59316   0.05485   0.00000  Uiso   1.00
O2     O     0.57583   0.55703   0.19211   0.00000  Uiso   1.00
O3     O     0.55314   0.47016   0.08542   0.00000  Uiso   1.00
O4     O     0.44082   0.39296  -0.13965   0.00000  Uiso   1.00
O5     O     0.50559   0.49069   0.89889   0.00000  Uiso   1.00
O6     O     0.60632   0.39003   0.99736   0.00000  Uiso   1.00
O7     O     0.52498   0.35477   0.03210   0.00000  Uiso   1.00
O8     O     0.54852   0.43806   0.77858   0.00000  Uiso   1.00
C9     C     0.57448   0.35870   1.04438   0.00000  Uiso   1.00
O10    O     0.56894   0.52478   0.88051   0.00000  Uiso   1.00
O11    O     0.61910   0.50428   1.07045   0.00000  Uiso   1.00
C12    C     0.45013   0.44272  -0.12000   0.00000  Uiso   1.00
O13    O     0.67828   0.60042   0.09812   0.00000  Uiso   1.00
O14    O     0.50777   0.59680  -0.01865   0.00000  Uiso   1.00
O15    O     0.58517   0.63792   0.93516   0.00000  Uiso   1.00
C16    C     0.56468   0.50797   0.18509   0.00000  Uiso   1.00
C17    C     0.53487   0.63017  -0.06768   0.00000  Uiso   1.00
C18    C     0.66983   0.55059   0.07563   0.00000  Uiso   1.00
C19    C     0.55810   0.48628   0.78250   0.00000  Uiso   1.00
Gd20   Gd    0.04246   0.56388   1.03944   0.00000  Uiso   1.00
Gd21   Gd    0.10572   0.44733   0.01394   0.00000  Uiso   1.00
O22    O     0.09378   0.46251   0.18473   0.00000  Uiso   1.00
O23    O     0.07028   0.51580   0.13340   0.00000  Uiso   1.00
O24    O     0.12915   0.56765   0.13297   0.00000  Uiso   1.00
O25    O     0.19667   0.55551   0.11750   0.00000  Uiso   1.00
O26    O     0.96280   0.56873   0.98403   0.00000  Uiso   1.00
O27    O     1.00755   0.57445   0.16887   0.00000  Uiso   1.00
O28    O     0.05083   0.54627   0.86449   0.00000  Uiso   1.00
C29    C     0.96237   0.57124   0.08687   0.00000  Uiso   1.00
O30    O     0.08070   0.49338   0.90441   0.00000  Uiso   1.00
O31    O     0.95382   0.45627   0.92968   0.00000  Uiso   1.00
C32    C     0.18443   0.59157   0.13504   0.00000  Uiso   1.00
O33    O     0.01681   0.43881   0.90291   0.00000  Uiso   1.00
O34    O     0.18010   0.43763   0.08399   0.00000  Uiso   1.00
O35    O     0.14569   0.43321   0.89760   0.00000  Uiso   1.00
C36    C     0.07828   0.49457   0.21083   0.00000  Uiso   1.00
C37    C     0.18435   0.43205  -0.01577   0.00000  Uiso   1.00
C38    C     0.96441   0.41899   0.90963   0.00000  Uiso   1.00
C39    C     0.06862   0.51650   0.83398   0.00000  Uiso   1.00
Gd40   Gd    0.46282   0.94624   0.93860   0.00000  Uiso   1.00
Gd41   Gd    0.67866   0.07564   0.12731   0.00000  Uiso   1.00
O42    O     0.66037   0.07082   0.28920   0.00000  Uiso   1.00
O43    O     0.56191   1.00863   0.12391   0.00000  Uiso   1.00
O44    O     0.49651   0.04218  -0.00018   0.00000  Uiso   1.00
O45    O     0.59075   0.07056   0.01359   0.00000  Uiso   1.00
O46    O     0.42878   0.85594   0.93246   0.00000  Uiso   1.00
O47    O     0.41775   0.91078   0.04855   0.00000  Uiso   1.00
O48    O     0.47933   0.95065   0.77321   0.00000  Uiso   1.00
C49    C     0.40938   0.86145   1.01023   0.00000  Uiso   1.00
O50    O     0.58634   0.01622   0.92347   0.00000  Uiso   1.00
O51    O     0.49749   0.89247   0.93093   0.00000  Uiso   1.00
C52    C     0.55929   0.08687   0.03577   0.00000  Uiso   1.00
O53    O     0.61698   0.96799   0.03531   0.00000  Uiso   1.00
O54    O     0.73949   0.17571   0.17409   0.00000  Uiso   1.00
O55    O     0.72781   0.11192   1.02173   0.00000  Uiso   1.00
C56    C     0.59717   0.03052   0.24380   0.00000  Uiso   1.00
C57    C     0.75276   0.16820   0.08728   0.00000  Uiso   1.00
C58    C     0.55715   0.90980   0.97114   0.00000  Uiso   1.00
C59    C     0.54050  -0.01459   0.80193   0.00000  Uiso   1.00
C60    C     0.55488   0.51542   0.47021   0.00000  Uiso   1.00
C61    C     0.56785   0.47791   0.49680   0.00000  Uiso   1.00
N62    N     0.57801   0.44943   0.41889   0.00000  Uiso   1.00
C63    C     0.57640   0.45738   0.31579   0.00000  Uiso   1.00
C64    C     0.56346   0.49484   0.28960   0.00000  Uiso   1.00
N65    N     0.55355   0.52336   0.36804   0.00000  Uiso   1.00
N66    N     0.54485   0.54407   0.54810   0.00000  Uiso   1.00
C67    C     0.54609   0.53607   0.65095   0.00000  Uiso   1.00
C68    C     0.55849   0.49813   0.67682   0.00000  Uiso   1.00
N69    N     0.56844   0.46952   0.59840   0.00000  Uiso   1.00
H70    H     0.58723   0.43651   0.25788   0.00000  Uiso   1.00
H71    H     0.53621   0.55804   0.70975   0.00000  Uiso   1.00
C72    C     0.04819   0.50765   0.52086   0.00000  Uiso   1.00
C73    C     0.09941   0.50821   0.52519   0.00000  Uiso   1.00
N74    N     0.13811   0.50983   0.62770   0.00000  Uiso   1.00
C75    C     0.12813   0.51112   0.72695   0.00000  Uiso   1.00
C76    C     0.07763   0.51139   0.72420   0.00000  Uiso   1.00
N77    N     0.03927   0.51035   0.62159   0.00000  Uiso   1.00
N78    N     0.00776   0.50343   0.41531   0.00000  Uiso   1.00
C79    C     0.01675   0.50049   0.31444   0.00000  Uiso   1.00
C80    C     0.06922   0.50295   0.32022   0.00000  Uiso   1.00
N81    N     0.10846   0.50574   0.42508   0.00000  Uiso   1.00
H82    H     0.16054   0.51374   0.80893   0.00000  Uiso   1.00
H83    H     0.98087   0.49270   0.22801   0.00000  Uiso   1.00
C84    C     0.59191   0.00644   0.52088   0.00000  Uiso   1.00
C85    C     0.53536  -0.00216   0.50818   0.00000  Uiso   1.00
N86    N     0.49929  -0.00036   0.40851   0.00000  Uiso   1.00
C87    C     0.51666   0.00876   0.32032   0.00000  Uiso   1.00
C88    C     0.57198   0.01529   0.32991   0.00000  Uiso   1.00
N89    N     0.60868   0.01481   0.43193   0.00000  Uiso   1.00
N90    N     0.63077   0.00869   0.62482   0.00000  Uiso   1.00
C91    C     0.61559   0.00243   0.71632   0.00000  Uiso   1.00
C92    C     0.55793  -0.00787   0.70290   0.00000  Uiso   1.00
N93    N     0.51916  -0.00986   0.59849   0.00000  Uiso   1.00
H94    H     0.48892   0.01282   0.24598   0.00000  Uiso   1.00
H95    H     0.64766   0.00439   0.79784   0.00000  Uiso   1.00
C96    C     0.33545   0.43415  -0.02271   0.00000  Uiso   1.00
C97    C     0.29621   0.43706   0.87946   0.00000  Uiso   1.00
N98    N     0.30976   0.44378   0.78621   0.00000  Uiso   1.00
C99    C     0.36028   0.44719   0.78586   0.00000  Uiso   1.00
C100   C     0.39912   0.44395   0.88326   0.00000  Uiso   1.00
N101   N     0.38537   0.43693  -0.02390   0.00000  Uiso   1.00
N102   N     0.32296   0.42856   0.07164   0.00000  Uiso   1.00
C103   C     0.27355   0.42641   0.07419   0.00000  Uiso   1.00
C104   C     0.23410   0.42923   0.97679   0.00000  Uiso   1.00
N105   N     0.24677   0.43486   0.88201   0.00000  Uiso   1.00
H106   H     0.36950   0.45163   0.70967   0.00000  Uiso   1.00
H107   H     0.26579   0.42331   0.15250   0.00000  Uiso   1.00
C108   C     0.86123   0.31736   1.01493   0.00000  Uiso   1.00
C109   C     0.85694   0.26602   0.97378   0.00000  Uiso   1.00
N110   N     0.88952   0.26596   0.91345   0.00000  Uiso   1.00
C111   C     0.92530   0.31455   0.89118   0.00000  Uiso   1.00
C112   C     0.92718   0.36458   0.92857   0.00000  Uiso   1.00
N113   N     0.89586   0.36490   0.99116   0.00000  Uiso   1.00
N114   N     0.83140   0.31942   1.07943   0.00000  Uiso   1.00
C115   C     0.79729   0.27233   1.10539   0.00000  Uiso   1.00
C116   C     0.79119   0.21992   1.06216   0.00000  Uiso   1.00
N117   N     0.82088   0.21765   0.99634   0.00000  Uiso   1.00
H118   H     0.95118   0.31390   0.84385   0.00000  Uiso   1.00
H119   H     0.77488   0.27593   1.15894   0.00000  Uiso   1.00
C120   C     0.82156   0.56705   0.03442   0.00000  Uiso   1.00
C121   C     0.80224   0.54348   0.11361   0.00000  Uiso   1.00
N122   N     0.83784   0.53229   0.18739   0.00000  Uiso   1.00
C123   C     0.89181   0.54356   0.18543   0.00000  Uiso   1.00
C124   C     0.91020   0.56589   0.10387   0.00000  Uiso   1.00
N125   N     0.87419   0.57667   0.02990   0.00000  Uiso   1.00
N126   N     0.78820   0.58091   0.96509   0.00000  Uiso   1.00
C127   C     0.73655   0.57271   0.97196   0.00000  Uiso   1.00
C128   C     0.71664   0.54875   0.05032   0.00000  Uiso   1.00
N129   N     0.75006   0.53467   0.11958   0.00000  Uiso   1.00
H130   H     0.91863   0.53331   0.24363   0.00000  Uiso   1.00
H131   H     0.71296   0.58701   0.92086   0.00000  Uiso   1.00
C132   C     0.28821   0.74624   1.07392   0.00000  Uiso   1.00
C133   C     0.32009   0.72512   0.12292   0.00000  Uiso   1.00
N134   N     0.38240   0.75113   0.13988   0.00000  Uiso   1.00
C135   C     0.41296   0.79570   0.10551   0.00000  Uiso   1.00
C136   C     0.37972   0.81525   0.05237   0.00000  Uiso   1.00
N137   N     0.31869   0.79077   1.03994   0.00000  Uiso   1.00
N138   N     0.22642   0.72077   1.05826   0.00000  Uiso   1.00
C139   C     0.19447   0.67440   1.08740   0.00000  Uiso   1.00
C140   C     0.22408   0.65031   0.12882   0.00000  Uiso   1.00
N141   N     0.28696   0.67711   0.14736   0.00000  Uiso   1.00
H142   H     0.46256   0.81577   0.11956   0.00000  Uiso   1.00
H143   H     0.14525   0.65499   1.07322   0.00000  Uiso   1.00
C144   C     0.50527   0.75347   0.90253   0.00000  Uiso   1.00
C145   C     0.56223   0.76488   0.90818   0.00000  Uiso   1.00
N146   N     0.61463   0.82200   0.92815   0.00000  Uiso   1.00
C147   C     0.61318   0.86863  -0.05528   0.00000  Uiso   1.00
C148   C     0.55719   0.85818  -0.05721   0.00000  Uiso   1.00
N149   N     0.50401   0.80024   0.91974   0.00000  Uiso   1.00
N150   N     0.45440   0.69743   0.88837   0.00000  Uiso   1.00
C151   C     0.45880   0.65302   0.88355   0.00000  Uiso   1.00
C152   C     0.51742   0.66574   0.89582   0.00000  Uiso   1.00
N153   N     0.56702   0.72097   0.90524   0.00000  Uiso   1.00
H154   H     0.65608   0.91390  -0.03874   0.00000  Uiso   1.00
H155   H     0.41885   0.60978   0.87714   0.00000  Uiso   1.00
C156   C     0.61200   0.25738   0.06786   0.00000  Uiso   1.00
C157   C     0.57451   0.22571   0.11891   0.00000  Uiso   1.00
N158   N     0.54768   0.24566   0.16315   0.00000  Uiso   1.00
C159   C     0.55343   0.29359   0.15272   0.00000  Uiso   1.00
C160   C     0.58686   0.32255   0.09364   0.00000  Uiso   1.00
N161   N     0.61619   0.30416   0.05427   0.00000  Uiso   1.00
N162   N     0.63708   0.23627   0.02012   0.00000  Uiso   1.00
C163   C     0.62552   0.18436   0.01891   0.00000  Uiso   1.00
C164   C     0.58559   0.15090   0.06476   0.00000  Uiso   1.00
N165   N     0.56153   0.17287   0.11485   0.00000  Uiso   1.00
H166   H     0.52873   0.30636   0.18346   0.00000  Uiso   1.00
H167   H     0.64307   0.16680  -0.02658   0.00000  Uiso   1.00
loop_
_geom_bond_atom_site_label_1
_geom_bond_atom_site_label_2
_geom_bond_distance
_geom_bond_site_symmetry_2
_ccdc_geom_bond_type
Gd0    O6      2.224   .     S
Gd0    O8      2.238   .     S
Gd0    O11     2.263   .     S
Gd0    O3      2.273   1_556 S
Gd0    O4      2.281   1_556 S
Gd0    O7      2.195   1_556 S
Gd1    O2      2.230   .     S
Gd1    O13     2.269   .     S
Gd1    O14     2.208   .     S
Gd1    O5      2.229   1_554 S
Gd1    O10     2.293   1_554 S
Gd1    O15     2.206   1_554 S
O2     C16     1.263   .     A
O3     C16     1.283   .     A
O3     Gd0     2.273   1_554 S
O4     C12     1.277   .     A
O4     Gd0     2.281   1_554 S
O5     Gd1     2.229   1_556 S
O5     C12     1.271   1_556 A
O6     C9      1.282   .     A
O7     Gd0     2.195   1_554 S
O7     C9      1.276   1_554 A
O8     C19     1.267   .     A
C9     O7      1.276   1_556 A
C9     C160    1.474   1_556 S
O10    C19     1.290   .     A
O10    Gd1     2.293   1_556 S
O11    C18     1.267   1_556 A
C12    O5      1.271   1_554 A
C12    C100    1.460   1_554 S
O13    C18     1.288   .     A
O14    C17     1.281   .     A
O15    Gd1     2.206   1_556 S
O15    C17     1.280   1_556 A
C16    C64     1.451   .     S
C17    O15     1.280   1_554 A
C17    C152    1.469   1_554 S
C18    C128    1.470   .     S
C18    O11     1.267   1_554 A
C19    C68     1.444   .     S
Gd20   O28     2.268   .     S
Gd20   O23     2.306   1_556 S
Gd20   O24     2.249   1_556 S
Gd20   O26     2.203   1_455 S
Gd20   O27     2.204   1_456 S
Gd20   O31     2.271   1_455 S
Gd21   O22     2.268   .     S
Gd21   O25     2.295   .     S
Gd21   O34     2.181   .     S
Gd21   O30     2.328   1_554 S
Gd21   O33     2.256   1_554 S
Gd21   O35     2.210   1_554 S
O22    C36     1.262   .     A
O23    C36     1.286   .     A
O23    Gd20    2.306   1_554 S
O24    C32     1.279   .     A
O24    Gd20    2.249   1_554 S
O25    C32     1.279   .     A
O26    Gd20    2.203   1_655 S
O26    C29     1.284   1_556 A
O27    C29     1.282   .     A
O27    Gd20    2.204   1_654 S
O28    C39     1.273   .     A
C29    C124    1.470   .     S
C29    O26     1.284   1_554 A
O30    C39     1.293   .     A
O30    Gd21    2.328   1_556 S
O31    C38     1.279   .     A
O31    Gd20    2.271   1_655 S
C32    C140    1.474   .     S
O33    Gd21    2.256   1_556 S
O33    C38     1.281   1_455 A
O34    C37     1.283   .     A
O35    Gd21    2.210   1_556 S
O35    C37     1.283   1_556 A
C36    C80     1.472   .     S
C37    O35     1.283   1_554 A
C37    C104    1.470   1_554 S
C38    C112    1.465   .     S
C38    O33     1.281   1_655 A
C39    C76     1.473   .     S
Gd40   O46     2.225   .     S
Gd40   O48     2.286   .     S
Gd40   O51     2.265   .     S
Gd40   O43     2.182   1_556 S
Gd40   O44     2.239   1_566 S
Gd40   O47     2.204   1_556 S
Gd41   O42     2.268   .     S
Gd41   O45     2.306   .     S
Gd41   O54     2.205   .     S
Gd41   O50     2.241   1_554 S
Gd41   O53     2.305   1_545 S
Gd41   O55     2.221   1_554 S
O42    C56     1.251   .     A
O43    Gd40    2.182   1_554 S
O43    C56     1.252   1_565 A
O44    C52     1.288   .     A
O44    Gd40    2.239   1_544 S
O45    C52     1.286   .     A
O46    C49     1.286   .     A
O47    Gd40    2.204   1_554 S
O47    C49     1.275   1_554 A
O48    C59     1.259   1_565 A
C49    O47     1.275   1_556 A
C49    C136    1.461   1_556 S
O50    C59     1.278   .     A
O50    Gd41    2.241   1_556 S
O51    C58     1.300   .     A
C52    C164    1.476   .     S
O53    Gd41    2.305   1_565 S
O53    C58     1.303   1_554 A
O54    C57     1.277   .     A
O55    Gd41    2.221   1_556 S
O55    C57     1.281   1_556 A
C56    C88     1.489   .     S
C56    O43     1.252   1_545 A
C57    O55     1.281   1_554 A
C57    C116    1.466   1_554 S
C58    O53     1.303   1_556 A
C58    C148    1.478   1_556 S
C59    C92     1.489   .     S
C59    O48     1.259   1_545 A
C60    C61     1.404   .     A
C60    N65     1.345   .     A
C60    N66     1.354   .     A
C61    N62     1.355   .     A
C61    N69     1.348   .     A
N62    C63     1.356   .     A
C63    C64     1.401   .     A
C63    H70     1.076   .     S
C64    N65     1.354   .     A
N66    C67     1.355   .     A
C67    C68     1.404   .     A
C67    H71     1.080   .     S
C68    N69     1.356   .     A
C72    C73     1.406   .     A
C72    N77     1.363   .     A
C72    N78     1.360   .     A
C73    N74     1.357   .     A
C73    N81     1.357   .     A
N74    C75     1.362   .     A
C75    C76     1.406   .     A
C75    H82     1.081   .     S
C76    N77     1.364   .     A
N78    C79     1.365   .     A
C79    C80     1.405   .     A
C79    H83     1.080   1_455 S
C80    N81     1.364   .     A
H83    C79     1.080   1_655 S
C84    C85     1.401   .     A
C84    N89     1.364   .     A
C84    N90     1.360   .     A
C85    N86     1.362   .     A
C85    N93     1.369   .     A
N86    C87     1.367   .     A
C87    C88     1.408   .     A
C87    H94     1.080   .     S
C88    N89     1.365   .     A
N90    C91     1.363   .     A
C91    C92     1.406   .     A
C91    H95     1.085   .     S
C92    N93     1.368   .     A
C96    N101    1.358   .     A
C96    N102    1.358   .     A
C96    C97     1.412   1_554 A
C97    N98     1.364   .     A
C97    N105    1.359   .     A
C97    C96     1.412   1_556 A
N98    C99     1.361   .     A
C99    C100    1.409   .     A
C99    H106    1.085   .     S
C100   N101    1.363   1_556 A
C100   C12     1.460   1_556 S
N101   C100    1.363   1_554 A
N102   C103    1.359   .     A
C103   H107    1.086   .     S
C103   C104    1.410   1_554 A
C104   N105    1.366   .     A
C104   C103    1.410   1_556 A
C104   C37     1.470   1_556 S
C108   C109    1.403   .     A
C108   N113    1.350   .     A
C108   N114    1.354   .     A
C109   N110    1.363   .     A
C109   N117    1.364   .     A
N110   C111    1.365   .     A
C111   C112    1.405   .     A
C111   H118    1.081   .     S
C112   N113    1.357   .     A
N114   C115    1.356   .     A
C115   C116    1.404   .     A
C115   H119    1.084   .     S
C116   N117    1.366   .     A
C116   C57     1.466   1_556 S
C120   C121    1.409   .     A
C120   N125    1.359   .     A
C120   N126    1.356   1_554 A
C121   N122    1.361   .     A
C121   N129    1.364   .     A
N122   C123    1.363   .     A
C123   C124    1.412   .     A
C123   H130    1.084   .     S
C124   N125    1.360   .     A
N126   C127    1.361   .     A
N126   C120    1.356   1_556 A
C127   H131    1.082   .     S
C127   C128    1.409   1_556 A
C128   N129    1.362   .     A
C128   C127    1.409   1_554 A
C132   N137    1.356   .     A
C132   N138    1.362   .     A
C132   C133    1.406   1_556 A
C133   N134    1.366   .     A
C133   N141    1.357   .     A
C133   C132    1.406   1_554 A
N134   C135    1.361   .     A
C135   C136    1.411   .     A
C135   H142    1.088   .     S
C136   N137    1.364   1_554 A
C136   C49     1.461   1_554 S
N137   C136    1.364   1_556 A
N138   C139    1.357   .     A
C139   H143    1.082   .     S
C139   C140    1.408   1_556 A
C140   N141    1.369   .     A
C140   C139    1.408   1_554 A
C144   C145    1.405   .     A
C144   N149    1.362   .     A
C144   N150    1.359   .     A
C145   N146    1.359   .     A
C145   N153    1.359   .     A
N146   C147    1.362   1_556 A
C147   C148    1.408   .     A
C147   H154    1.086   .     S
C147   N146    1.362   1_554 A
C148   N149    1.364   1_554 A
C148   C58     1.478   1_554 S
N149   C148    1.364   1_556 A
N150   C151    1.364   .     A
C151   C152    1.406   .     A
C151   H155    1.083   .     S
C152   N153    1.362   .     A
C152   C17     1.469   1_556 S
C156   C157    1.405   .     A
C156   N161    1.361   .     A
C156   N162    1.355   .     A
C157   N158    1.356   .     A
C157   N165    1.361   .     A
N158   C159    1.361   .     A
C159   C160    1.406   .     A
C159   H166    1.081   .     S
C160   N161    1.361   .     A
C160   C9      1.474   1_554 S
N162   C163    1.360   .     A
C163   C164    1.405   .     A
C163   H167    1.083   .     S
C164   N165    1.361   .     A
