data_kag+N205+E1
_audit_creation_date              2025-01-21
_audit_creation_method            'Materials Studio'
_symmetry_space_group_name_H-M    'P1'
_symmetry_Int_Tables_number       1
_symmetry_cell_setting            triclinic
loop_
_symmetry_equiv_pos_as_xyz
  x,y,z
_cell_length_a                    44.2132
_cell_length_b                    43.9941
_cell_length_c                    18.9276
_cell_angle_alpha                 94.2874
_cell_angle_beta                  96.3377
_cell_angle_gamma                 120.0467
loop_
_atom_site_label
_atom_site_type_symbol
_atom_site_fract_x
_atom_site_fract_y
_atom_site_fract_z
_atom_site_U_iso_or_equiv
_atom_site_adp_type
_atom_site_occupancy
Y0     Y     0.55000   0.50173   0.00720   0.00000  Uiso   1.00
Y1     Y     0.46155   0.50641   1.00041   0.00000  Uiso   1.00
C2     C     0.49874   0.57832   0.01989   0.00000  Uiso   1.00
C3     C     0.50943   0.50423   0.12581   0.00000  Uiso   1.00
C4     C     0.62007   0.52701   1.01080   0.00000  Uiso   1.00
C5     C     0.51381   0.42980   0.98932   0.00000  Uiso   1.00
C6     C     0.50162   0.50323   0.88176   0.00000  Uiso   1.00
C7     C     0.39142   0.48244  -0.00948   0.00000  Uiso   1.00
O8     O     0.48866   0.55912   0.95963   0.00000  Uiso   1.00
O9     O     0.49089   0.56033   0.07074   0.00000  Uiso   1.00
O10    O     0.53822   0.52392   0.10363   0.00000  Uiso   1.00
O11    O     0.48149   0.48298   0.08096   0.00000  Uiso   1.00
O12    O     0.59842   0.52030   0.95450   0.00000  Uiso   1.00
O13    O     0.60579   0.52234   0.06615   0.00000  Uiso   1.00
O14    O     0.52503   0.44928   0.04947   0.00000  Uiso   1.00
O15    O     0.52007   0.44749   0.93795   0.00000  Uiso   1.00
O16    O     0.47290   0.48363   0.90415   0.00000  Uiso   1.00
O17    O     0.52950   0.52466   0.92655   0.00000  Uiso   1.00
O18    O     0.41159   0.48786   0.04844   0.00000  Uiso   1.00
O19    O     0.40720   0.48769   0.93727   0.00000  Uiso   1.00
Y20    Y     0.05236   0.54834   0.00434   0.00000  Uiso   1.00
Y21    Y     0.95661   0.45713   1.00037   0.00000  Uiso   1.00
C22    C     0.91968   0.49102   0.99769   0.00000  Uiso   1.00
C23    C     0.01398   0.50918   0.12551   0.00000  Uiso   1.00
C24    C     0.09565   0.61829   0.99948   0.00000  Uiso   1.00
C25    C     0.08885   0.51419  -0.00284   0.00000  Uiso   1.00
C26    C    -0.00498   0.49631   0.88025   0.00000  Uiso   1.00
C27    C     0.91344   0.38744   0.00783   0.00000  Uiso   1.00
O28    O     0.92134   0.47421   0.94294   0.00000  Uiso   1.00
O29    O     0.93831   0.49150   0.05361   0.00000  Uiso   1.00
O30    O     0.02582   0.53864   0.10166   0.00000  Uiso   1.00
O31    O     1.00601   0.48132   0.08356   0.00000  Uiso   1.00
O32    O     0.07914   0.59508   0.94449   0.00000  Uiso   1.00
O33    O     0.08840   0.60552   0.05682   0.00000  Uiso   1.00
O34    O     0.08604   0.52777   0.05517   0.00000  Uiso   1.00
O35    O     0.07149   0.51692   0.94324   0.00000  Uiso   1.00
O36    O     0.98323   0.46670   0.90339   0.00000  Uiso   1.00
O37    O     0.00242   0.52380   0.92275   0.00000  Uiso   1.00
O38    O     0.92684   0.41161   0.06141   0.00000  Uiso   1.00
O39    O     0.92364   0.39920   0.95100   0.00000  Uiso   1.00
Y40    Y     0.50837   0.05079  -0.00741   0.00000  Uiso   1.00
Y41    Y     0.49997   0.95464   1.00847   0.00000  Uiso   1.00
C42    C     0.42864   0.91936   1.00041   0.00000  Uiso   1.00
C43    C     0.50989   0.01238   0.12308   0.00000  Uiso   1.00
C44    C     0.48307   0.09511   0.97702   0.00000  Uiso   1.00
C45    C     0.57980   0.08623   0.00171   0.00000  Uiso   1.00
C46    C     0.49851  -0.00700   0.87752   0.00000  Uiso   1.00
C47    C     0.52526   0.91041   0.02530   0.00000  Uiso   1.00
O48    O     0.44385   0.92150   0.94702   0.00000  Uiso   1.00
O49    O     0.45035   0.93665   0.05751   0.00000  Uiso   1.00
O50    O     0.49179   0.02327   0.08841   0.00000  Uiso   1.00
O51    O     0.52886   1.00363   0.09124   0.00000  Uiso   1.00
O52    O     0.48909   0.08028   0.92537   0.00000  Uiso   1.00
O53    O     0.48884   0.08586   0.03590   0.00000  Uiso   1.00
O54    O     0.56437   0.08401   0.05478   0.00000  Uiso   1.00
O55    O     0.55827   0.06895   0.94441   0.00000  Uiso   1.00
O56    O     0.51647   0.98198   0.91231   0.00000  Uiso   1.00
O57    O     0.47965   0.00197   0.90922   0.00000  Uiso   1.00
O58    O     0.51949   0.92565   0.07662   0.00000  Uiso   1.00
O59    O     0.51913   0.91908   0.96594   0.00000  Uiso   1.00
C60    C     0.50690   0.50562   0.35194   0.00000  Uiso   1.00
C61    C     0.53827   0.52888   0.32759   0.00000  Uiso   1.00
C62    C     0.53908   0.52870   0.25403   0.00000  Uiso   1.00
C63    C     0.50848   0.50537   0.20356   0.00000  Uiso   1.00
C64    C     0.47700   0.48252   0.22802   0.00000  Uiso   1.00
C65    C     0.47623   0.48265   0.30146   0.00000  Uiso   1.00
C66    C     0.50619   0.50481   0.42972   0.00000  Uiso   1.00
C67    C     0.48837   0.47221   0.45550   0.00000  Uiso   1.00
C68    C     0.48747   0.47130   0.52878   0.00000  Uiso   1.00
C69    C     0.50451   0.50300   0.57772   0.00000  Uiso   1.00
C70    C     0.52234   0.53561   0.55194   0.00000  Uiso   1.00
C71    C     0.52323   0.53652   0.47865   0.00000  Uiso   1.00
C72    C     0.50388   0.50213   0.65552   0.00000  Uiso   1.00
C73    C     0.53459   0.52505   0.70596   0.00000  Uiso   1.00
C74    C     0.53391   0.52504   0.77941   0.00000  Uiso   1.00
C75    C     0.50249   0.50208   0.80396   0.00000  Uiso   1.00
C76    C     0.47186   0.47879   0.75354   0.00000  Uiso   1.00
C77    C     0.47257   0.47876   0.67996   0.00000  Uiso   1.00
H78    H     0.56238   0.54668   0.36539   0.00000  Uiso   1.00
H79    H     0.56375   0.54655   0.23672   0.00000  Uiso   1.00
H80    H     0.45296   0.46428   0.19044   0.00000  Uiso   1.00
H81    H     0.45157   0.46487   0.31883   0.00000  Uiso   1.00
H82    H     0.47555   0.44736   0.41905   0.00000  Uiso   1.00
H83    H     0.47393   0.44579   0.54729   0.00000  Uiso   1.00
H84    H     0.53517   0.56046   0.58840   0.00000  Uiso   1.00
H85    H     0.53678   0.56202   0.46011   0.00000  Uiso   1.00
H86    H     0.55921   0.54291   0.68853   0.00000  Uiso   1.00
H87    H     0.55798   0.54326   0.81694   0.00000  Uiso   1.00
H88    H     0.44723   0.46086   0.77089   0.00000  Uiso   1.00
H89    H     0.44844   0.46099   0.64219   0.00000  Uiso   1.00
C90    C     0.00388   0.50165   0.65622   0.00000  Uiso   1.00
C91    C     0.99211   0.46941   0.68337   0.00000  Uiso   1.00
C92    C     0.98995   0.46786   0.75627   0.00000  Uiso   1.00
C93    C    -0.00056   0.49853   0.80389   0.00000  Uiso   1.00
C94    C     0.01202   0.53098   0.77717   0.00000  Uiso   1.00
C95    C     0.01429   0.53253   0.70417   0.00000  Uiso   1.00
C96    C     0.00471   0.50279   0.57799   0.00000  Uiso   1.00
C97    C     0.03332   0.53079   0.55395   0.00000  Uiso   1.00
C98    C     0.03402   0.53162   0.48031   0.00000  Uiso   1.00
C99    C     0.00608   0.50450   0.42896   0.00000  Uiso   1.00
C100   C     0.97741   0.47659   0.45305   0.00000  Uiso   1.00
C101   C     0.97672   0.47576   0.52664   0.00000  Uiso   1.00
C102   C     0.00689   0.50536   0.35064   0.00000  Uiso   1.00
C103   C     0.99604   0.47421   0.30311   0.00000  Uiso   1.00
C104   C     0.99776   0.47531   0.22984   0.00000  Uiso   1.00
C105   C     0.01031   0.50756   0.20236   0.00000  Uiso   1.00
C106   C     0.02039   0.53854   0.24962   0.00000  Uiso   1.00
C107   C     0.01877   0.53745   0.32284   0.00000  Uiso   1.00
H108   H     0.98457   0.44530   0.64811   0.00000  Uiso   1.00
H109   H     0.98036   0.44249   0.77513   0.00000  Uiso   1.00
H110   H     0.01956   0.55509   0.81243   0.00000  Uiso   1.00
H111   H     0.02332   0.55775   0.68491   0.00000  Uiso   1.00
H112   H     0.05548   0.55179   0.59209   0.00000  Uiso   1.00
H113   H     0.05674   0.55320   0.46353   0.00000  Uiso   1.00
H114   H     0.95520   0.45562   0.41495   0.00000  Uiso   1.00
H115   H     0.95395   0.45422   0.54341   0.00000  Uiso   1.00
H116   H     0.98697   0.44910   0.32284   0.00000  Uiso   1.00
H117   H     0.98972   0.45094   0.19490   0.00000  Uiso   1.00
H118   H     0.02991   0.56378   0.23019   0.00000  Uiso   1.00
H119   H     0.02670   0.56177   0.35777   0.00000  Uiso   1.00
C120   C     0.50607   0.00556   0.34814   0.00000  Uiso   1.00
C121   C     0.48888   0.02038   0.30981   0.00000  Uiso   1.00
C122   C     0.48989   0.02224   0.23672   0.00000  Uiso   1.00
C123   C     0.50828   0.00949   0.20020   0.00000  Uiso   1.00
C124   C     0.52538   0.99453   0.23837   0.00000  Uiso   1.00
C125   C     0.52426   0.99256   0.31156   0.00000  Uiso   1.00
C126   C     0.50507   0.00384   0.42600   0.00000  Uiso   1.00
C127   C     0.50079   0.97371   0.45504   0.00000  Uiso   1.00
C128   C     0.49954   0.97203   0.52820   0.00000  Uiso   1.00
C129   C     0.50268   0.00050   0.57406   0.00000  Uiso   1.00
C130   C     0.50690   0.03059   0.54497   0.00000  Uiso   1.00
C131   C     0.50815   0.03227   0.47185   0.00000  Uiso   1.00
C132   C     0.50180  -0.00108   0.65200   0.00000  Uiso   1.00
C133   C     0.48380   0.01217   0.68858   0.00000  Uiso   1.00
C134   C     0.48291   0.01054   0.76191   0.00000  Uiso   1.00
C135   C     0.50002  -0.00436   0.80026   0.00000  Uiso   1.00
C136   C     0.51828   0.98270   0.76378   0.00000  Uiso   1.00
C137   C     0.51906   0.98422   0.69051   0.00000  Uiso   1.00
H138   H     0.47428   0.03022   0.33620   0.00000  Uiso   1.00
H139   H     0.47640   0.03390   0.20892   0.00000  Uiso   1.00
H140   H     0.53973   0.98443   0.21178   0.00000  Uiso   1.00
H141   H     0.53812   0.98136   0.33981   0.00000  Uiso   1.00
H142   H     0.49777   0.95115   0.42093   0.00000  Uiso   1.00
H143   H     0.49559   0.94820   0.54867   0.00000  Uiso   1.00
H144   H     0.50986   0.05314   0.57900   0.00000  Uiso   1.00
H145   H     0.51204   0.05609   0.45140   0.00000  Uiso   1.00
H146   H     0.46994   0.02333   0.66022   0.00000  Uiso   1.00
H147   H     0.46870   0.02085   0.78844   0.00000  Uiso   1.00
H148   H     0.53184   0.97115   0.79175   0.00000  Uiso   1.00
H149   H     0.53356   0.97423   0.66415   0.00000  Uiso   1.00
C150   C     0.28647   0.46550  -0.02057   0.00000  Uiso   1.00
C151   C     0.30013   0.46444  -0.08385   0.00000  Uiso   1.00
C152   C     0.33368   0.46839  -0.08051   0.00000  Uiso   1.00
C153   C     0.35417   0.47323  -0.01388   0.00000  Uiso   1.00
C154   C     0.33989   0.47246   0.04909   0.00000  Uiso   1.00
C155   C     0.30640   0.46868   0.04582   0.00000  Uiso   1.00
C156   C     0.25294   0.46600  -0.02325   0.00000  Uiso   1.00
C157   C     0.22942   0.44928   0.02451   0.00000  Uiso   1.00
C158   C     0.19952   0.45248   0.02564   0.00000  Uiso   1.00
C159   C     0.19242   0.47235  -0.02118   0.00000  Uiso   1.00
C160   C     0.21541   0.48821  -0.07025   0.00000  Uiso   1.00
C161   C     0.24527   0.48510  -0.07123   0.00000  Uiso   1.00
C162   C     0.16240   0.47837  -0.01671   0.00000  Uiso   1.00
C163   C     0.15445   0.48530   0.05043   0.00000  Uiso   1.00
C164   C     0.12934   0.49552   0.05493   0.00000  Uiso   1.00
C165   C     0.11156   0.49874  -0.00760   0.00000  Uiso   1.00
C166   C     0.11806   0.48998  -0.07481   0.00000  Uiso   1.00
C167   C     0.14321   0.47992  -0.07933   0.00000  Uiso   1.00
H168   H     0.28519   0.46133  -0.13594   0.00000  Uiso   1.00
H169   H     0.34403   0.46873  -0.12994   0.00000  Uiso   1.00
H170   H     0.35521   0.47625   0.10119   0.00000  Uiso   1.00
H171   H     0.29689   0.46995   0.09564   0.00000  Uiso   1.00
H172   H     0.23424   0.43387   0.06133   0.00000  Uiso   1.00
H173   H     0.18202   0.43951   0.06334   0.00000  Uiso   1.00
H174   H     0.21110   0.50423  -0.10622   0.00000  Uiso   1.00
H175   H     0.26307   0.49886  -0.10787   0.00000  Uiso   1.00
H176   H     0.16878   0.48448   0.09974   0.00000  Uiso   1.00
H177   H     0.12471   0.50206   0.10742   0.00000  Uiso   1.00
H178   H     0.10469   0.49225  -0.12386   0.00000  Uiso   1.00
H179   H     0.14825   0.47415  -0.13189   0.00000  Uiso   1.00
C180   C     0.82852   0.28141   0.00936   0.00000  Uiso   1.00
C181   C     0.84407   0.29065   0.94752   0.00000  Uiso   1.00
C182   C     0.87295   0.32469   0.94798   0.00000  Uiso   1.00
C183   C     0.88687   0.35005   0.01033   0.00000  Uiso   1.00
C184   C     0.87263   0.34023   0.07323   0.00000  Uiso   1.00
C185   C     0.84373   0.30623   0.07276   0.00000  Uiso   1.00
C186   C     0.79465   0.24748   0.00612   0.00000  Uiso   1.00
C187   C     0.78821   0.22823   0.06425   0.00000  Uiso   1.00
C188   C     0.75488   0.19832   0.06378   0.00000  Uiso   1.00
C189   C     0.72730   0.18713   0.00521   0.00000  Uiso   1.00
C190   C     0.73413   0.20584   0.94630   0.00000  Uiso   1.00
C191   C     0.76738   0.23563   0.94674   0.00000  Uiso   1.00
C192   C     0.69083   0.15773   0.00705   0.00000  Uiso   1.00
C193   C     0.66941   0.13407   0.94416   0.00000  Uiso   1.00
C194   C     0.63361   0.10954   0.94333   0.00000  Uiso   1.00
C195   C     0.61853   0.10817   0.00533   0.00000  Uiso   1.00
C196   C     0.64033   0.13035   0.06931   0.00000  Uiso   1.00
C197   C     0.67613   0.15496   0.07013   0.00000  Uiso   1.00
H198   H     0.83326   0.27185   0.89824   0.00000  Uiso   1.00
H199   H     0.88359   0.33153   0.89885   0.00000  Uiso   1.00
H200   H     0.88275   0.35933   0.12195   0.00000  Uiso   1.00
H201   H     0.83212   0.30002   0.12100   0.00000  Uiso   1.00
H202   H     0.80882   0.23661   0.11050   0.00000  Uiso   1.00
H203   H     0.75055   0.18420   0.10959   0.00000  Uiso   1.00
H204   H     0.71330   0.19841   0.90103   0.00000  Uiso   1.00
H205   H     0.77121   0.25034   0.90189   0.00000  Uiso   1.00
H206   H     0.68014   0.13519   0.89506   0.00000  Uiso   1.00
H207   H     0.61747   0.09249   0.89347   0.00000  Uiso   1.00
H208   H     0.62936   0.12977   0.11793   0.00000  Uiso   1.00
H209   H     0.69181   0.17304   0.11924   0.00000  Uiso   1.00
C210   C     0.84565   0.52705   0.99644   0.00000  Uiso   1.00
C211   C     0.85172   0.51493   0.93156   0.00000  Uiso   1.00
C212   C     0.87686   0.50457   0.93177   0.00000  Uiso   1.00
C213   C     0.89687   0.50657   0.99672   0.00000  Uiso   1.00
C214   C     0.89251   0.52068   1.06116   0.00000  Uiso   1.00
C215   C     0.86703   0.53065   1.06110   0.00000  Uiso   1.00
C216   C     0.81545   0.53320   0.99708   0.00000  Uiso   1.00
C217   C     0.81732   0.55939   1.04807   0.00000  Uiso   1.00
C218   C     0.78779   0.56309   1.05129   0.00000  Uiso   1.00
C219   C     0.75600   0.54111   1.00269   0.00000  Uiso   1.00
C220   C     0.75432   0.51528   0.95140   0.00000  Uiso   1.00
C221   C     0.78354   0.51130   0.94871   0.00000  Uiso   1.00
C222   C     0.72392   0.54362   1.00629   0.00000  Uiso   1.00
C223   C     0.71349   0.54704   1.07261   0.00000  Uiso   1.00
C224   C     0.68029   0.54349   1.07467   0.00000  Uiso   1.00
C225   C     0.65722   0.53676   1.01045   0.00000  Uiso   1.00
C226   C     0.66871   0.53584   0.94457   0.00000  Uiso   1.00
C227   C     0.70170   0.53928   0.94251   0.00000  Uiso   1.00
H228   H     0.83645   0.51262   0.88053   0.00000  Uiso   1.00
H229   H     0.87986   0.49397   0.88123   0.00000  Uiso   1.00
H230   H     0.90773   0.52261   1.11197   0.00000  Uiso   1.00
H231   H     0.86301   0.53958   1.11215   0.00000  Uiso   1.00
H232   H     0.84160   0.57702   1.08557   0.00000  Uiso   1.00
H233   H     0.78984   0.58319   1.09154   0.00000  Uiso   1.00
H234   H     0.72991   0.49724   0.91457   0.00000  Uiso   1.00
H235   H     0.78062   0.49019   0.90997   0.00000  Uiso   1.00
H236   H     0.73011   0.55050   1.12266   0.00000  Uiso   1.00
H237   H     0.67208   0.54450   1.12623   0.00000  Uiso   1.00
H238   H     0.65149   0.53071   0.89424   0.00000  Uiso   1.00
H239   H     0.70934   0.53730   0.89070   0.00000  Uiso   1.00
C240   C     0.31775   0.84827   0.99677   0.00000  Uiso   1.00
C241   C     0.33917   0.87262   0.05884   0.00000  Uiso   1.00
C242   C     0.37497   0.89699   0.05914   0.00000  Uiso   1.00
C243   C     0.38997   0.89752   0.99734   0.00000  Uiso   1.00
C244   C     0.36814   0.87465   0.93407   0.00000  Uiso   1.00
C245   C     0.33235   0.85022   0.93380   0.00000  Uiso   1.00
C246   C     0.28145   0.81889   0.99953   0.00000  Uiso   1.00
C247   C     0.25354   0.80762   0.94169   0.00000  Uiso   1.00
C248   C     0.22033   0.77765   0.94197   0.00000  Uiso   1.00
C249   C     0.21444   0.75828   0.99995   0.00000  Uiso   1.00
C250   C     0.24212   0.77027   0.05861   0.00000  Uiso   1.00
C251   C     0.27518   0.80021   0.05843   0.00000  Uiso   1.00
C252   C     0.18065   0.72428   0.99751   0.00000  Uiso   1.00
C253   C     0.16624   0.71458   0.06044   0.00000  Uiso   1.00
C254   C     0.13744   0.68055   0.06037   0.00000  Uiso   1.00
C255   C     0.12226   0.65567   0.99721   0.00000  Uiso   1.00
C256   C     0.13528   0.66592   0.93337   0.00000  Uiso   1.00
C257   C     0.16427   0.69985   0.93353   0.00000  Uiso   1.00
H258   H     0.32840   0.87215   0.10769   0.00000  Uiso   1.00
H259   H     0.39114   0.91461   0.10843   0.00000  Uiso   1.00
H260   H     0.37907   0.87456   0.88569   0.00000  Uiso   1.00
H261   H     0.31662   0.83164   0.88533   0.00000  Uiso   1.00
H262   H     0.25752   0.82176   0.89594   0.00000  Uiso   1.00
H263   H     0.19939   0.76937   0.89644   0.00000  Uiso   1.00
H264   H     0.23877   0.75562   0.10347   0.00000  Uiso   1.00
H265   H     0.29633   0.80781   0.10314   0.00000  Uiso   1.00
H266   H     0.17785   0.73301   0.11026   0.00000  Uiso   1.00
H267   H     0.12772   0.67337   0.11022   0.00000  Uiso   1.00
H268   H     0.12419   0.64713   0.88403   0.00000  Uiso   1.00
H269   H     0.17497   0.70627   0.88438   0.00000  Uiso   1.00
C270   C     0.54749   0.82646   0.03956   0.00000  Uiso   1.00
C271   C     0.54031   0.84079   0.10002   0.00000  Uiso   1.00
C272   C     0.53481   0.86938   0.09668   0.00000  Uiso   1.00
C273   C     0.53617   0.88397   0.03278   0.00000  Uiso   1.00
C274   C     0.54523   0.87096   0.97376   0.00000  Uiso   1.00
C275   C     0.55115   0.84274   0.97734   0.00000  Uiso   1.00
C276   C     0.54773   0.79275   0.03860   0.00000  Uiso   1.00
C277   C     0.53151   0.76704   0.97657   0.00000  Uiso   1.00
C278   C     0.52911   0.73422   0.97598   0.00000  Uiso   1.00
C279   C     0.54285   0.72606   0.03740   0.00000  Uiso   1.00
C280   C     0.55969   0.75194   0.09925   0.00000  Uiso   1.00
C281   C     0.56210   0.78497   0.09985   0.00000  Uiso   1.00
C282   C     0.53733   0.68982   0.03732   0.00000  Uiso   1.00
C283   C     0.52799   0.67232   0.09757   0.00000  Uiso   1.00
C284   C     0.51741   0.63637   0.09339   0.00000  Uiso   1.00
C285   C     0.51575   0.61729   0.02880   0.00000  Uiso   1.00
C286   C     0.52712   0.63521   0.97008   0.00000  Uiso   1.00
C287   C     0.53808   0.67116   0.97448   0.00000  Uiso   1.00
H288   H     0.53714   0.82881   0.14868   0.00000  Uiso   1.00
H289   H     0.52785   0.87896   0.14292   0.00000  Uiso   1.00
H290   H     0.54675   0.88193   0.92401   0.00000  Uiso   1.00
H291   H     0.55758   0.83296   0.93052   0.00000  Uiso   1.00
H292   H     0.51940   0.77172   0.92897   0.00000  Uiso   1.00
H293   H     0.51515   0.71469   0.92801   0.00000  Uiso   1.00
H294   H     0.57081   0.74660   0.14728   0.00000  Uiso   1.00
H295   H     0.57507   0.80433   0.14828   0.00000  Uiso   1.00
H296   H     0.52686   0.68578   0.14660   0.00000  Uiso   1.00
H297   H     0.50863   0.62305   0.13934   0.00000  Uiso   1.00
H298   H     0.52633   0.62112   0.91981   0.00000  Uiso   1.00
H299   H     0.54597   0.68406   0.92770   0.00000  Uiso   1.00
C300   C     0.47551   0.31828   0.97184   0.00000  Uiso   1.00
C301   C     0.47608   0.33720   0.03575   0.00000  Uiso   1.00
C302   C     0.48698   0.37315   0.04034   0.00000  Uiso   1.00
C303   C     0.49710   0.39084   0.98086   0.00000  Uiso   1.00
C304   C     0.49430   0.37153   0.91551   0.00000  Uiso   1.00
C305   C     0.48373   0.33557   0.91109   0.00000  Uiso   1.00
C306   C     0.46966   0.28188   0.97087   0.00000  Uiso   1.00
C307   C     0.45095   0.25566   0.90991   0.00000  Uiso   1.00
C308   C     0.44791   0.22233   0.90845   0.00000  Uiso   1.00
C309   C     0.46339   0.21456   0.96803   0.00000  Uiso   1.00
C310   C     0.48162   0.24063   0.02909   0.00000  Uiso   1.00
C311   C     0.48475   0.27380   0.03046   0.00000  Uiso   1.00
C312   C     0.46271   0.18040   0.96603   0.00000  Uiso   1.00
C313   C     0.45882   0.16379   0.02780   0.00000  Uiso   1.00
C314   C     0.46387   0.13496   0.03018   0.00000  Uiso   1.00
C315   C     0.47254   0.12190   0.97056   0.00000  Uiso   1.00
C316   C     0.47430   0.13702   0.90727   0.00000  Uiso   1.00
C317   C     0.46942   0.16603   0.90499   0.00000  Uiso   1.00
H318   H     0.46918   0.32447   0.08307   0.00000  Uiso   1.00
H319   H     0.48863   0.38740   0.09120   0.00000  Uiso   1.00
H320   H     0.50212   0.38468   0.86896   0.00000  Uiso   1.00
H321   H     0.48393   0.32190   0.86131   0.00000  Uiso   1.00
H322   H     0.43882   0.26097   0.86331   0.00000  Uiso   1.00
H323   H     0.43361   0.20270   0.86071   0.00000  Uiso   1.00
H324   H     0.49469   0.23589   0.07508   0.00000  Uiso   1.00
H325   H     0.50019   0.29363   0.07746   0.00000  Uiso   1.00
H326   H     0.45297   0.17384   0.07519   0.00000  Uiso   1.00
H327   H     0.46217   0.12368   0.07958   0.00000  Uiso   1.00
H328   H     0.48119   0.12757   0.86076   0.00000  Uiso   1.00
H329   H     0.47287   0.17842   0.85685   0.00000  Uiso   1.00
loop_
_geom_bond_atom_site_label_1
_geom_bond_atom_site_label_2
_geom_bond_distance
_geom_bond_site_symmetry_2
_ccdc_geom_bond_type
Y0     O10     2.238   .     S
Y0     O13     2.270   .     S
Y0     O14     2.259   .     S
Y0     O12     2.255   1_554 S
Y0     O15     2.269   1_554 S
Y0     O17     2.238   1_554 S
Y1     O8      2.258   .     S
Y1     O16     2.238   .     S
Y1     O19     2.262   .     S
Y1     O9      2.269   1_556 S
Y1     O11     2.239   1_556 S
Y1     O18     2.263   1_556 S
C2     O9      1.259   .     A
C2     C285    1.473   .     S
C2     O8      1.257   1_554 A
C3     O10     1.271   .     A
C3     O11     1.270   .     A
C3     C63     1.475   .     S
C4     O12     1.258   .     A
C4     C225    1.476   .     S
C4     O13     1.259   1_556 A
C5     O15     1.259   .     A
C5     C303    1.474   .     S
C5     O14     1.257   1_556 A
C6     O16     1.270   .     A
C6     O17     1.270   .     A
C6     C75     1.475   .     S
C7     O18     1.259   .     A
C7     C153    1.476   .     S
C7     O19     1.259   1_554 A
O8     C2      1.257   1_556 A
O9     Y1      2.269   1_554 S
O11    Y1      2.239   1_554 S
O12    Y0      2.255   1_556 S
O13    C4      1.259   1_554 A
O14    C5      1.257   1_554 A
O15    Y0      2.269   1_556 S
O17    Y0      2.238   1_556 S
O18    Y1      2.263   1_554 S
O19    C7      1.259   1_556 A
Y20    O30     2.246   .     S
Y20    O33     2.262   .     S
Y20    O34     2.264   .     S
Y20    O32     2.263   1_554 S
Y20    O35     2.261   1_554 S
Y20    O37     2.244   1_554 S
Y21    O28     2.258   .     S
Y21    O36     2.242   .     S
Y21    O39     2.262   .     S
Y21    O29     2.266   1_556 S
Y21    O31     2.246   1_556 S
Y21    O38     2.263   1_556 S
C22    O28     1.258   .     A
C22    C213    1.475   .     S
C22    O29     1.259   1_556 A
C23    O30     1.272   .     A
C23    C105    1.484   .     S
C23    O31     1.272   1_455 A
C24    O32     1.259   .     A
C24    C255    1.475   .     S
C24    O33     1.259   1_556 A
C25    O34     1.259   .     A
C25    C165    1.474   .     S
C25    O35     1.258   1_554 A
C26    O37     1.272   .     A
C26    C93     1.484   .     S
C26    O36     1.271   1_455 A
C27    O38     1.259   .     A
C27    C183    1.475   .     S
C27    O39     1.259   1_554 A
O29    Y21     2.266   1_554 S
O29    C22     1.259   1_554 A
O31    Y21     2.246   1_554 S
O31    C23     1.272   1_655 A
O32    Y20     2.263   1_556 S
O33    C24     1.259   1_554 A
O35    Y20     2.261   1_556 S
O35    C25     1.258   1_556 A
O36    C26     1.271   1_655 A
O37    Y20     2.244   1_556 S
O38    Y21     2.263   1_554 S
O39    C27     1.259   1_556 A
Y40    O50     2.242   .     S
Y40    O53     2.259   .     S
Y40    O54     2.264   .     S
Y40    O52     2.268   1_554 S
Y40    O55     2.264   1_554 S
Y40    O57     2.244   1_554 S
Y41    O48     2.263   .     S
Y41    O56     2.243   .     S
Y41    O59     2.259   .     S
Y41    O49     2.263   1_556 S
Y41    O51     2.242   1_556 S
Y41    O58     2.267   1_556 S
C42    O48     1.258   .     A
C42    C243    1.475   .     S
C42    O49     1.259   1_556 A
C43    O50     1.271   .     A
C43    C123    1.481   .     S
C43    O51     1.271   1_545 A
C44    O52     1.260   .     A
C44    C315    1.476   .     S
C44    O53     1.258   1_556 A
C45    O54     1.258   .     A
C45    C195    1.476   .     S
C45    O55     1.259   1_554 A
C46    O57     1.271   .     A
C46    C135    1.482   .     S
C46    O56     1.272   1_545 A
C47    O58     1.260   .     A
C47    C273    1.476   .     S
C47    O59     1.258   1_554 A
O49    Y41     2.263   1_554 S
O49    C42     1.259   1_554 A
O51    Y41     2.242   1_554 S
O51    C43     1.271   1_565 A
O52    Y40     2.268   1_556 S
O53    C44     1.258   1_554 A
O55    Y40     2.264   1_556 S
O55    C45     1.259   1_556 A
O56    C46     1.272   1_565 A
O57    Y40     2.244   1_556 S
O58    Y41     2.267   1_554 S
O59    C47     1.258   1_556 A
C60    C61     1.405   .     A
C60    C65     1.404   .     A
C60    C66     1.479   .     S
C61    C62     1.396   .     A
C61    H78     1.083   .     S
C62    C63     1.405   .     A
C62    H79     1.083   .     S
C63    C64     1.405   .     A
C64    C65     1.394   .     A
C64    H80     1.083   .     S
C65    H81     1.083   .     S
C66    C67     1.405   .     A
C66    C71     1.404   .     A
C67    C68     1.395   .     A
C67    H82     1.083   .     S
C68    C69     1.404   .     A
C68    H83     1.083   .     S
C69    C70     1.405   .     A
C69    C72     1.479   .     S
C70    C71     1.395   .     A
C70    H84     1.083   .     S
C71    H85     1.083   .     S
C72    C73     1.404   .     A
C72    C77     1.405   .     A
C73    C74     1.394   .     A
C73    H86     1.083   .     S
C74    C75     1.405   .     A
C74    H87     1.083   .     S
C75    C76     1.405   .     A
C76    C77     1.396   .     A
C76    H88     1.083   .     S
C77    H89     1.083   .     S
C90    C95     1.407   .     A
C90    C96     1.489   .     S
C90    C91     1.405   1_455 A
C91    C92     1.398   .     A
C91    H108    1.083   .     S
C91    C90     1.405   1_655 A
C92    H109    1.083   .     S
C92    C93     1.406   1_655 A
C93    C94     1.406   .     A
C93    C92     1.406   1_455 A
C94    C95     1.401   .     A
C94    H110    1.083   .     S
C95    H111    1.083   .     S
C96    C97     1.406   .     A
C96    C101    1.406   1_455 A
C97    C98     1.400   .     A
C97    H112    1.083   .     S
C98    C99     1.407   .     A
C98    H113    1.083   .     S
C99    C102    1.490   .     S
C99    C100    1.406   1_455 A
C100   C101    1.399   .     A
C100   H114    1.083   .     S
C100   C99     1.406   1_655 A
C101   H115    1.083   .     S
C101   C96     1.406   1_655 A
C102   C107    1.406   .     A
C102   C103    1.407   1_455 A
C103   C104    1.400   .     A
C103   H116    1.083   .     S
C103   C102    1.407   1_655 A
C104   H117    1.083   .     S
C104   C105    1.406   1_655 A
C105   C106    1.406   .     A
C105   C104    1.406   1_455 A
C106   C107    1.399   .     A
C106   H118    1.083   .     S
C107   H119    1.083   .     S
C120   C121    1.405   .     A
C120   C126    1.486   .     S
C120   C125    1.406   1_545 A
C121   C122    1.396   .     A
C121   H138    1.083   .     S
C122   C123    1.406   .     A
C122   H139    1.083   .     S
C123   C124    1.406   1_545 A
C124   C125    1.399   .     A
C124   H140    1.083   .     S
C124   C123    1.406   1_565 A
C125   H141    1.083   .     S
C125   C120    1.406   1_565 A
C126   C131    1.406   .     A
C126   C127    1.405   1_545 A
C127   C128    1.398   .     A
C127   H142    1.083   .     S
C127   C126    1.405   1_565 A
C128   H143    1.083   .     S
C128   C129    1.406   1_565 A
C129   C130    1.405   .     A
C129   C132    1.486   .     S
C129   C128    1.406   1_545 A
C130   C131    1.397   .     A
C130   H144    1.083   .     S
C131   H145    1.083   .     S
C132   C133    1.406   .     A
C132   C137    1.405   1_545 A
C133   C134    1.399   .     A
C133   H146    1.083   .     S
C134   C135    1.406   .     A
C134   H147    1.083   .     S
C135   C136    1.406   1_545 A
C136   C137    1.397   .     A
C136   H148    1.083   .     S
C136   C135    1.406   1_565 A
C137   H149    1.083   .     S
C137   C132    1.405   1_565 A
C150   C151    1.407   .     A
C150   C155    1.407   .     A
C150   C156    1.489   .     S
C151   C152    1.398   .     A
C151   H168    1.083   .     S
C152   C153    1.404   .     A
C152   H169    1.084   .     S
C153   C154    1.404   .     A
C154   C155    1.398   .     A
C154   H170    1.084   .     S
C155   H171    1.083   .     S
C156   C157    1.407   .     A
C156   C161    1.406   .     A
C157   C158    1.400   .     A
C157   H172    1.083   .     S
C158   C159    1.406   .     A
C158   H173    1.083   .     S
C159   C160    1.406   .     A
C159   C162    1.487   .     S
C160   C161    1.396   .     A
C160   H174    1.084   .     S
C161   H175    1.083   .     S
C162   C163    1.407   .     A
C162   C167    1.406   .     A
C163   C164    1.399   .     A
C163   H176    1.082   .     S
C164   C165    1.403   .     A
C164   H177    1.083   .     S
C165   C166    1.403   .     A
C166   C167    1.396   .     A
C166   H178    1.083   .     S
C167   H179    1.082   .     S
C180   C185    1.405   .     A
C180   C186    1.484   .     S
C180   C181    1.406   1_554 A
C181   C182    1.398   .     A
C181   H198    1.083   .     S
C181   C180    1.406   1_556 A
C182   H199    1.083   .     S
C182   C183    1.404   1_556 A
C183   C184    1.404   .     A
C183   C182    1.404   1_554 A
C184   C185    1.397   .     A
C184   H200    1.083   .     S
C185   H201    1.083   .     S
C186   C187    1.406   .     A
C186   C191    1.405   1_554 A
C187   C188    1.399   .     A
C187   H202    1.083   .     S
C188   C189    1.406   .     A
C188   H203    1.083   .     S
C189   C192    1.485   .     S
C189   C190    1.405   1_554 A
C190   C191    1.395   .     A
C190   H204    1.083   .     S
C190   C189    1.405   1_556 A
C191   H205    1.083   .     S
C191   C186    1.405   1_556 A
C192   C197    1.406   .     A
C192   C193    1.406   1_554 A
C193   C194    1.397   .     A
C193   H206    1.083   .     S
C193   C192    1.406   1_556 A
C194   H207    1.083   .     S
C194   C195    1.403   1_556 A
C195   C196    1.404   .     A
C195   C194    1.403   1_554 A
C196   C197    1.398   .     A
C196   H208    1.083   .     S
C197   H209    1.083   .     S
C210   C211    1.408   .     A
C210   C215    1.408   .     A
C210   C216    1.490   .     S
C211   C212    1.396   .     A
C211   H228    1.082   .     S
C212   C213    1.403   .     A
C212   H229    1.083   .     S
C213   C214    1.403   .     A
C214   C215    1.399   .     A
C214   H230    1.083   .     S
C215   H231    1.082   .     S
C216   C217    1.409   .     A
C216   C221    1.407   .     A
C217   C218    1.402   .     A
C217   H232    1.083   .     S
C218   C219    1.406   .     A
C218   H233    1.084   .     S
C219   C220    1.405   .     A
C219   C222    1.485   .     S
C220   C221    1.394   .     A
C220   H234    1.084   .     S
C221   H235    1.083   .     S
C222   C223    1.407   .     A
C222   C227    1.405   .     A
C223   C224    1.402   .     A
C223   H236    1.083   .     S
C224   C225    1.406   .     A
C224   H237    1.083   .     S
C225   C226    1.403   .     A
C226   C227    1.394   .     A
C226   H238    1.083   .     S
C227   H239    1.083   .     S
C240   C245    1.405   .     A
C240   C246    1.483   .     S
C240   C241    1.405   1_556 A
C241   C242    1.397   .     A
C241   H258    1.083   .     S
C241   C240    1.405   1_554 A
C242   H259    1.083   .     S
C242   C243    1.403   1_554 A
C243   C244    1.404   .     A
C243   C242    1.403   1_556 A
C244   C245    1.397   .     A
C244   H260    1.083   .     S
C245   H261    1.082   .     S
C246   C247    1.405   .     A
C246   C251    1.404   1_556 A
C247   C248    1.399   .     A
C247   H262    1.083   .     S
C248   C249    1.407   .     A
C248   H263    1.082   .     S
C249   C252    1.486   .     S
C249   C250    1.405   1_556 A
C250   C251    1.395   .     A
C250   H264    1.083   .     S
C250   C249    1.405   1_554 A
C251   H265    1.083   .     S
C251   C246    1.404   1_554 A
C252   C257    1.406   .     A
C252   C253    1.406   1_556 A
C253   C254    1.397   .     A
C253   H266    1.083   .     S
C253   C252    1.406   1_554 A
C254   H267    1.083   .     S
C254   C255    1.403   1_554 A
C255   C256    1.404   .     A
C255   C254    1.403   1_556 A
C256   C257    1.398   .     A
C256   H268    1.083   .     S
C257   H269    1.083   .     S
C270   C271    1.407   .     A
C270   C276    1.487   .     S
C270   C275    1.407   1_554 A
C271   C272    1.400   .     A
C271   H288    1.083   .     S
C272   C273    1.404   .     A
C272   H289    1.083   .     S
C273   C274    1.403   1_554 A
C274   C275    1.396   .     A
C274   H290    1.083   .     S
C274   C273    1.403   1_556 A
C275   H291    1.083   .     S
C275   C270    1.407   1_556 A
C276   C281    1.407   .     A
C276   C277    1.405   1_554 A
C277   C278    1.393   .     A
C277   H292    1.083   .     S
C277   C276    1.405   1_556 A
C278   H293    1.083   .     S
C278   C279    1.405   1_556 A
C279   C280    1.407   .     A
C279   C282    1.487   .     S
C279   C278    1.405   1_554 A
C280   C281    1.402   .     A
C280   H294    1.083   .     S
C281   H295    1.083   .     S
C282   C283    1.407   .     A
C282   C287    1.407   1_554 A
C283   C284    1.399   .     A
C283   H296    1.082   .     S
C284   C285    1.403   .     A
C284   H297    1.083   .     S
C285   C286    1.403   1_554 A
C286   C287    1.396   .     A
C286   H298    1.083   .     S
C286   C285    1.403   1_556 A
C287   H299    1.083   .     S
C287   C282    1.407   1_556 A
C300   C305    1.407   .     A
C300   C306    1.487   .     S
C300   C301    1.407   1_556 A
C301   C302    1.396   .     A
C301   H318    1.083   .     S
C301   C300    1.407   1_554 A
C302   H319    1.083   .     S
C302   C303    1.403   1_554 A
C303   C304    1.404   .     A
C303   C302    1.403   1_556 A
C304   C305    1.400   .     A
C304   H320    1.083   .     S
C305   H321    1.082   .     S
C306   C307    1.407   .     A
C306   C311    1.405   1_556 A
C307   C308    1.402   .     A
C307   H322    1.083   .     S
C308   C309    1.406   .     A
C308   H323    1.083   .     S
C309   C312    1.485   .     S
C309   C310    1.404   1_556 A
C310   C311    1.393   .     A
C310   H324    1.083   .     S
C310   C309    1.404   1_554 A
C311   H325    1.082   .     S
C311   C306    1.405   1_554 A
C312   C317    1.406   .     A
C312   C313    1.406   1_556 A
C313   C314    1.396   .     A
C313   H326    1.083   .     S
C313   C312    1.406   1_554 A
C314   H327    1.083   .     S
C314   C315    1.404   1_554 A
C315   C316    1.404   .     A
C315   C314    1.404   1_556 A
C316   C317    1.400   .     A
C316   H328    1.083   .     S
C317   H329    1.083   .     S
