data_kag+N505+E225
_audit_creation_date              2025-01-21
_audit_creation_method            'Materials Studio'
_symmetry_space_group_name_H-M    'P1'
_symmetry_Int_Tables_number       1
_symmetry_cell_setting            triclinic
loop_
_symmetry_equiv_pos_as_xyz
  x,y,z
_cell_length_a                    40.5066
_cell_length_b                    35.9422
_cell_length_c                    20.7515
_cell_angle_alpha                 89.9929
_cell_angle_beta                  84.1750
_cell_angle_gamma                 109.5033
loop_
_atom_site_label
_atom_site_type_symbol
_atom_site_fract_x
_atom_site_fract_y
_atom_site_fract_z
_atom_site_U_iso_or_equiv
_atom_site_adp_type
_atom_site_occupancy
Yb0    Yb    0.56029   0.51363   0.95511   0.00000  Uiso   1.00
Yb1    Yb    0.45675   0.49353   0.08074   0.00000  Uiso   1.00
C2     C     0.39914   0.49749   0.06134   0.00000  Uiso   1.00
O3     O     0.52647   0.48195   0.89052   0.00000  Uiso   1.00
O4     O     0.57744   0.52753   0.85686   0.00000  Uiso   1.00
O5     O     0.53510   0.55787  -0.04189   0.00000  Uiso   1.00
O6     O     0.48199   0.51522   0.98512   0.00000  Uiso   1.00
O7     O     0.59523   0.48201   0.95825   0.00000  Uiso   1.00
O8     O     0.60624   0.54083  -0.00058   0.00000  Uiso   1.00
O9     O     0.49488   0.52587   0.13794   0.00000  Uiso   1.00
O10    O     0.44452   0.48265   0.18069   0.00000  Uiso   1.00
C11    C     0.54813   0.50202   0.84296   0.00000  Uiso   1.00
O12    O     0.53131   0.48961   0.04637   0.00000  Uiso   1.00
O13    O     0.47898   0.44692   1.07482   0.00000  Uiso   1.00
O14    O     0.42316   0.52709   0.08275   0.00000  Uiso   1.00
C15    C     0.50241   0.55084  -0.02503   0.00000  Uiso   1.00
O16    O     0.40742   0.46641   1.04797   0.00000  Uiso   1.00
C17    C     0.61615   0.51066   0.98754   0.00000  Uiso   1.00
C18    C     0.47514   0.50770   0.18894   0.00000  Uiso   1.00
C19    C     0.51114   0.45389   0.05429   0.00000  Uiso   1.00
Yb20   Yb    0.02736   0.54468   0.90066   0.00000  Uiso   1.00
Yb21   Yb    0.98764   0.42803   0.05285   0.00000  Uiso   1.00
C22    C     0.93166   0.37326   0.04541   0.00000  Uiso   1.00
O23    O     0.00905   0.50916   0.82310   0.00000  Uiso   1.00
O24    O     0.99207   0.56005   0.84656   0.00000  Uiso   1.00
O25    O     0.98628   0.50695   0.97078   0.00000  Uiso   1.00
O26    O     0.95345   0.46540   1.04919   0.00000  Uiso   1.00
O27    O     0.06921   0.59034   0.85133   0.00000  Uiso   1.00
O28    O     0.04975   0.59543  -0.04725   0.00000  Uiso   1.00
O29    O     0.96596   0.46357   0.11770   0.00000  Uiso   1.00
O30    O     0.01372   0.45464   0.13479   0.00000  Uiso   1.00
C31    C     0.99200   0.53186   0.80769   0.00000  Uiso   1.00
O32    O     0.06537   0.52026  -0.06608   0.00000  Uiso   1.00
O33    O     0.02477   0.47337  -0.00946   0.00000  Uiso   1.00
O34    O     0.94618   0.38022   0.09833   0.00000  Uiso   1.00
C35    C     0.95702   0.49274   1.00582   0.00000  Uiso   1.00
O36    O     0.94862   0.39513   0.99525   0.00000  Uiso   1.00
C37    C     0.07268   0.61033   0.90342   0.00000  Uiso   1.00
C38    C    -0.00989   0.46903   0.15503   0.00000  Uiso   1.00
C39    C     0.05717   0.49026  -0.02747   0.00000  Uiso   1.00
Yb40   Yb    0.44526   0.96781   0.05400   0.00000  Uiso   1.00
Yb41   Yb    0.54420   0.03143   0.94345   0.00000  Uiso   1.00
C42    C     0.59593   0.09057   0.95251   0.00000  Uiso   1.00
O43    O     0.48008   0.97870   0.12650   0.00000  Uiso   1.00
O44    O     0.42641  -0.01943   0.14655   0.00000  Uiso   1.00
O45    O     0.46096   0.02950   0.02685   0.00000  Uiso   1.00
O46    O     0.51786   0.04418   0.03137   0.00000  Uiso   1.00
O47    O     0.41605   0.90762   0.07255   0.00000  Uiso   1.00
O48    O     0.39830   0.94557   1.01117   0.00000  Uiso   1.00
O49    O     0.50661   0.01811   0.87564   0.00000  Uiso   1.00
O50    O     0.56061   1.01855   0.84936   0.00000  Uiso   1.00
C51    C     0.45616  -0.01580   0.16775   0.00000  Uiso   1.00
O52    O     0.47388   0.95410   0.96929   0.00000  Uiso   1.00
O53    O     0.53108   0.97068   0.97291   0.00000  Uiso   1.00
O54    O     0.57011   0.09181   0.92160   0.00000  Uiso   1.00
C55    C     0.49139   0.05513   0.02770   0.00000  Uiso   1.00
O56    O     0.59288   0.05702  -0.02063   0.00000  Uiso   1.00
C57    C     0.39236   0.91126   0.03805   0.00000  Uiso   1.00
C58    C     0.52983   1.01362   0.83170   0.00000  Uiso   1.00
C59    C     0.50090   0.94427   0.97465   0.00000  Uiso   1.00
C60    C     0.48789   0.51410   0.25302   0.00000  Uiso   1.00
C61    C     0.47008   0.48807   0.30536   0.00000  Uiso   1.00
C62    C     0.48425   0.49169   0.36439   0.00000  Uiso   1.00
C63    C     0.51609   0.52221   0.37248   0.00000  Uiso   1.00
C64    C     0.53364   0.54814   0.32020   0.00000  Uiso   1.00
C65    C     0.51967   0.54430   0.26092   0.00000  Uiso   1.00
C66    C     0.50980   0.51428   0.48690   0.00000  Uiso   1.00
H67    H     0.58099   0.54952   0.73713   0.00000  Uiso   1.00
H68    H     0.55955   0.54757   0.63129   0.00000  Uiso   1.00
H69    H     0.47153   0.44300   0.69322   0.00000  Uiso   1.00
H70    H     0.49252   0.44522   0.80023   0.00000  Uiso   1.00
H71    H     0.54992   0.50985   0.53875   0.00000  Uiso   1.00
O72    O     0.49889   0.49386   0.59649   0.00000  Uiso   1.00
O73    O     0.53248   0.52581   0.42956   0.00000  Uiso   1.00
C74    C     0.53852   0.49738   0.77646   0.00000  Uiso   1.00
C75    C     0.55761   0.52550   0.72761   0.00000  Uiso   1.00
C76    C     0.54541   0.52423   0.66693   0.00000  Uiso   1.00
C77    C     0.51423   0.49425   0.65403   0.00000  Uiso   1.00
C78    C     0.49574   0.46583   0.70242   0.00000  Uiso   1.00
C79    C     0.50781   0.46715   0.76316   0.00000  Uiso   1.00
C80    C     0.52224   0.50699   0.54033   0.00000  Uiso   1.00
H81    H     0.47082   0.46992   0.40283   0.00000  Uiso   1.00
H82    H     0.55842   0.57121   0.32545   0.00000  Uiso   1.00
H83    H     0.44592   0.46401   0.30002   0.00000  Uiso   1.00
H84    H     0.48208   0.51132   0.48889   0.00000  Uiso   1.00
H85    H     0.53405   0.56453   0.22095   0.00000  Uiso   1.00
C86    C     0.97512   0.52681   0.74670   0.00000  Uiso   1.00
C87    C    -0.01930   0.49964   0.70175   0.00000  Uiso   1.00
C88    C    -0.03139   0.49774   0.64075   0.00000  Uiso   1.00
C89    C     0.95047   0.52271   0.62353   0.00000  Uiso   1.00
C90    C     0.94334   0.54854   0.66916   0.00000  Uiso   1.00
C91    C     0.95588   0.55092   0.73015   0.00000  Uiso   1.00
C92    C    -0.03250   0.53401   0.51211   0.00000  Uiso   1.00
H93    H     0.93633   0.48753   0.22324   0.00000  Uiso   1.00
H94    H     0.93642   0.51578   0.33107   0.00000  Uiso   1.00
H95    H     0.04426   0.52211   0.33627   0.00000  Uiso   1.00
H96    H     0.04435   0.49413   0.22879   0.00000  Uiso   1.00
H97    H     0.93749   0.50474   0.43922   0.00000  Uiso   1.00
O98    O    -0.00732   0.53636   0.40430   0.00000  Uiso   1.00
O99    O     0.93931   0.52163   0.56151   0.00000  Uiso   1.00
C100   C    -0.00964   0.48867   0.21778   0.00000  Uiso   1.00
C101   C     0.96003   0.49509   0.24753   0.00000  Uiso   1.00
C102   C     0.95990   0.51057   0.30972   0.00000  Uiso   1.00
C103   C    -0.00978   0.51975   0.34288   0.00000  Uiso   1.00
C104   C     0.02057   0.51446   0.31194   0.00000  Uiso   1.00
C105   C     0.02060   0.49869   0.25052   0.00000  Uiso   1.00
C106   C     0.96308   0.52391   0.45077   0.00000  Uiso   1.00
H107   H    -0.02620   0.47724   0.60628   0.00000  Uiso   1.00
H108   H     0.92911   0.56771   0.65654   0.00000  Uiso   1.00
H109   H    -0.00463   0.48062   0.71295   0.00000  Uiso   1.00
H110   H    -0.00623   0.55154   0.52336   0.00000  Uiso   1.00
H111   H     0.95119   0.57216   0.76369   0.00000  Uiso   1.00
C112   C     0.46222  -0.00599   0.23590   0.00000  Uiso   1.00
C113   C     0.49113   0.98929   0.26271   0.00000  Uiso   1.00
C114   C     0.49593   0.99739   0.32789   0.00000  Uiso   1.00
C115   C     0.47179   0.01039   0.36742   0.00000  Uiso   1.00
C116   C     0.44385   0.01655   0.33976   0.00000  Uiso   1.00
C117   C     0.43879   0.00801   0.27496   0.00000  Uiso   1.00
C118   C     0.48749   0.99522   0.47017   0.00000  Uiso   1.00
H119   H     0.47537   0.02075   0.77002   0.00000  Uiso   1.00
H120   H     0.46454   0.00653   0.65689   0.00000  Uiso   1.00
H121   H     0.55538   0.96909   0.62896   0.00000  Uiso   1.00
H122   H     0.56645   0.98339   0.74177   0.00000  Uiso   1.00
H123   H     0.48957   0.03010   0.55146   0.00000  Uiso   1.00
O124   O     0.50506   0.97868   0.56862   0.00000  Uiso   1.00
O125   O     0.47579   0.01998   0.43268   0.00000  Uiso   1.00
C126   C     0.52209   1.00377   0.76434   0.00000  Uiso   1.00
C127   C     0.49316   0.00977   0.73949   0.00000  Uiso   1.00
C128   C     0.48726   0.00216   0.67454   0.00000  Uiso   1.00
C129   C     0.51024   0.98828   0.63347   0.00000  Uiso   1.00
C130   C     0.53812   0.98087   0.65929   0.00000  Uiso   1.00
C131   C     0.54433   0.98898   0.72368   0.00000  Uiso   1.00
C132   C     0.49314   1.00351   0.53179   0.00000  Uiso   1.00
H133   H     0.51869   0.99403   0.34699   0.00000  Uiso   1.00
H134   H     0.42564   0.02757   0.36895   0.00000  Uiso   1.00
H135   H     0.50992   0.97911   0.23346   0.00000  Uiso   1.00
H136   H     0.49119   0.96862   0.45074   0.00000  Uiso   1.00
H137   H     0.41666   0.01269   0.25530   0.00000  Uiso   1.00
C138   C     0.36347   0.49846   0.05518   0.00000  Uiso   1.00
C139   C     0.33559   0.46322   0.04911   0.00000  Uiso   1.00
C140   C     0.30098   0.46319   0.05122   0.00000  Uiso   1.00
C141   C     0.29373   0.49888   0.05756   0.00000  Uiso   1.00
C142   C     0.32185   0.53409   1.06154   0.00000  Uiso   1.00
C143   C     0.35636   0.53400   0.06062   0.00000  Uiso   1.00
C144   C     0.23085   0.46925   0.04928   0.00000  Uiso   1.00
H145   H     0.12690   0.53023   0.95393   0.00000  Uiso   1.00
H146   H     0.17485   0.50958   0.98200   0.00000  Uiso   1.00
H147   H     0.10081   0.40075   0.06795   0.00000  Uiso   1.00
H148   H     0.05174   0.42095   0.03835   0.00000  Uiso   1.00
H149   H     0.19556   0.49693   1.08624   0.00000  Uiso   1.00
O150   O     0.16904   0.44111   0.04382   0.00000  Uiso   1.00
O151   O     0.25956   0.50126   0.06543   0.00000  Uiso   1.00
C152   C     0.08539   0.47738  -0.00561   0.00000  Uiso   1.00
C153   C     0.12054   0.50199   0.97944   0.00000  Uiso   1.00
C154   C     0.14813   0.49042   0.99617   0.00000  Uiso   1.00
C155   C     0.14140   0.45411   0.02938   0.00000  Uiso   1.00
C156   C     0.10639   0.42920   0.04375   0.00000  Uiso   1.00
C157   C     0.07847   0.44083   0.02698   0.00000  Uiso   1.00
C158   C     0.19856   0.47105   0.06260   0.00000  Uiso   1.00
H159   H     0.28034   0.43498   0.05053   0.00000  Uiso   1.00
H160   H     0.31673   0.56170   1.06709   0.00000  Uiso   1.00
H161   H     0.34031   0.43533   0.04570   0.00000  Uiso   1.00
H162   H     0.23402   0.44451   0.02264   0.00000  Uiso   1.00
H163   H     0.37735   0.56158   1.06562   0.00000  Uiso   1.00
C164   C     0.89652   0.34312   0.04330   0.00000  Uiso   1.00
C165   C     0.87608   0.34421   0.99316   0.00000  Uiso   1.00
C166   C     0.84141   0.31823   0.99491   0.00000  Uiso   1.00
C167   C     0.82697   0.28973   0.04620   0.00000  Uiso   1.00
C168   C     0.84757   0.28884   0.09598   0.00000  Uiso   1.00
C169   C     0.88198   0.31520   0.09479   0.00000  Uiso   1.00
C170   C     0.77460   0.25360   0.99694   0.00000  Uiso   1.00
H171   H     0.65021   0.09822   0.02474   0.00000  Uiso   1.00
H172   H     0.70526   0.15356   0.02240   0.00000  Uiso   1.00
H173   H     0.66925   0.21669   0.88394   0.00000  Uiso   1.00
H174   H     0.61382   0.16095   0.88584   0.00000  Uiso   1.00
H175   H     0.72705   0.22130   0.05068   0.00000  Uiso   1.00
O176   O     0.72330   0.22106   0.94680   0.00000  Uiso   1.00
O177   O     0.79186   0.26384   0.05300   0.00000  Uiso   1.00
C178   C     0.62774   0.12541   0.95557   0.00000  Uiso   1.00
C179   C     0.65377   0.12417  -0.00539   0.00000  Uiso   1.00
C180   C     0.68514   0.15604  -0.00624   0.00000  Uiso   1.00
C181   C     0.69095   0.18995   0.95411   0.00000  Uiso   1.00
C182   C     0.66487   0.19114   0.91556   0.00000  Uiso   1.00
C183   C     0.63337   0.15939   0.91673   0.00000  Uiso   1.00
C184   C     0.74079   0.23099   0.00262   0.00000  Uiso   1.00
H185   H     0.82592   0.32168   0.95738   0.00000  Uiso   1.00
H186   H     0.83663   0.26781   0.13647   0.00000  Uiso   1.00
H187   H     0.88635   0.36617   0.95380   0.00000  Uiso   1.00
H188   H     0.78822   0.26214   0.94865   0.00000  Uiso   1.00
H189   H     0.89700   0.31403   0.13456   0.00000  Uiso   1.00
C190   C     0.92769   0.50739   0.99903   0.00000  Uiso   1.00
C191   C     0.90652   0.51220   0.05398   0.00000  Uiso   1.00
C192   C     0.87613   0.52147   0.04714   0.00000  Uiso   1.00
C193   C     0.86584   0.52471   0.98500   0.00000  Uiso   1.00
C194   C     0.88785   0.52139   0.93041   0.00000  Uiso   1.00
C195   C     0.91833   0.51244   0.93730   0.00000  Uiso   1.00
C196   C     0.80541   0.51543   1.02092   0.00000  Uiso   1.00
H197   H     0.65250   0.46345   0.93976   0.00000  Uiso   1.00
H198   H     0.70916   0.46163   0.96988   0.00000  Uiso   1.00
H199   H     0.71159   0.55092   0.10897   0.00000  Uiso   1.00
H200   H     0.65542   0.55396   0.07803   0.00000  Uiso   1.00
H201   H     0.77304   0.53687   0.97015   0.00000  Uiso   1.00
O202   O     0.74599   0.50472   0.05977   0.00000  Uiso   1.00
O203   O     0.83470   0.53200   0.97483   0.00000  Uiso   1.00
C204   C     0.64979   0.50901   1.00636   0.00000  Uiso   1.00
C205   C     0.66520   0.48281   0.97654   0.00000  Uiso   1.00
C206   C     0.69747   0.48184   0.99333   0.00000  Uiso   1.00
C207   C     0.71447   0.50664   1.04078   0.00000  Uiso   1.00
C208   C     0.69881   0.53211   0.07167   0.00000  Uiso   1.00
C209   C     0.66690   0.53374   0.05398   0.00000  Uiso   1.00
C210   C     0.77490   0.52035   1.01283   0.00000  Uiso   1.00
H211   H     0.86083   0.52593   0.09041   0.00000  Uiso   1.00
H212   H     0.88058   0.52426   0.88234   0.00000  Uiso   1.00
H213   H     0.91333   0.50843   0.10212   0.00000  Uiso   1.00
H214   H     0.80636   0.49735   0.06220   0.00000  Uiso   1.00
H215   H     0.93346   0.50728   0.89446   0.00000  Uiso   1.00
C216   C     0.35943   0.87847   0.03132   0.00000  Uiso   1.00
C217   C     0.33755   0.88107   0.98435   0.00000  Uiso   1.00
C218   C     0.30470   0.85188   0.98187   0.00000  Uiso   1.00
C219   C     0.29322   0.81949   0.02646   0.00000  Uiso   1.00
C220   C     0.31519   0.81686   0.07283   0.00000  Uiso   1.00
C221   C     0.34823   0.84571   0.07483   0.00000  Uiso   1.00
C222   C     0.24566   0.77899   0.97157   0.00000  Uiso   1.00
H223   H     0.10047   0.64295   0.01211   0.00000  Uiso   1.00
H224   H     0.15482   0.69648   0.01926   0.00000  Uiso   1.00
H225   H     0.16837   0.71471   0.81105   0.00000  Uiso   1.00
H226   H     0.11400   0.65863   0.80399   0.00000  Uiso   1.00
H227   H     0.19529   0.75175   0.01754   0.00000  Uiso   1.00
O228   O     0.19904   0.74124   0.91361   0.00000  Uiso   1.00
O229   O     0.25901   0.79182   0.03052   0.00000  Uiso   1.00
C230   C     0.10283   0.64695   0.90761   0.00000  Uiso   1.00
C231   C     0.11463   0.65901  -0.03203   0.00000  Uiso   1.00
C232   C     0.14609   0.69025  -0.02817   0.00000  Uiso   1.00
C233   C     0.16594   0.71107   0.91505   0.00000  Uiso   1.00
C234   C     0.15336   0.69948   0.85516   0.00000  Uiso   1.00
C235   C     0.12236   0.66761   0.85121   0.00000  Uiso   1.00
C236   C     0.21188   0.75668   0.97188   0.00000  Uiso   1.00
H237   H     0.28779   0.85532   0.94687   0.00000  Uiso   1.00
H238   H     0.30640   0.79254   0.10818   0.00000  Uiso   1.00
H239   H     0.34548   0.90616   0.95048   0.00000  Uiso   1.00
H240   H     0.26268   0.78518   0.92601   0.00000  Uiso   1.00
H241   H     0.36435   0.84312   0.11201   0.00000  Uiso   1.00
C242   C     0.49874   0.90227   0.97630   0.00000  Uiso   1.00
C243   C     0.46783   0.87164   0.96449   0.00000  Uiso   1.00
C244   C     0.46806   0.83285   0.95742   0.00000  Uiso   1.00
C245   C     0.49923   0.82429   0.96225   0.00000  Uiso   1.00
C246   C     0.52961   0.85463   0.97512   0.00000  Uiso   1.00
C247   C     0.52938   0.89303   0.98289   0.00000  Uiso   1.00
C248   C     0.47566   0.75370  -0.02640   0.00000  Uiso   1.00
H249   H     0.53903   0.62492   1.00891   0.00000  Uiso   1.00
H250   H     0.51943   0.68223   1.01635   0.00000  Uiso   1.00
H251   H     0.41713   0.61096  -0.03307   0.00000  Uiso   1.00
H252   H     0.43700   0.55328  -0.04224   0.00000  Uiso   1.00
H253   H     0.50299   0.71811   0.93263   0.00000  Uiso   1.00
O254   O     0.45521   0.68375  -0.00772   0.00000  Uiso   1.00
O255   O     0.50252   0.78760   0.94706   0.00000  Uiso   1.00
C256   C     0.48933   0.58450   0.98373   0.00000  Uiso   1.00
C257   C     0.51233   0.62140   0.99962   0.00000  Uiso   1.00
C258   C     0.50125   0.65426   1.00332   0.00000  Uiso   1.00
C259   C     0.46699   0.65105  -0.00992   0.00000  Uiso   1.00
C260   C     0.44372   0.61401  -0.02384   0.00000  Uiso   1.00
C261   C     0.45496   0.58113  -0.02826   0.00000  Uiso   1.00
C262   C     0.47977   0.71877   0.96340   0.00000  Uiso   1.00
H263   H     0.44455   0.81006  -0.05483   0.00000  Uiso   1.00
H264   H     0.55387   0.84849   0.97773   0.00000  Uiso   1.00
H265   H     0.44403   0.87792  -0.04217   0.00000  Uiso   1.00
H266   H     0.45306   0.75547   0.00487   0.00000  Uiso   1.00
H267   H     0.55375   0.91580   0.99157   0.00000  Uiso   1.00
C268   C     0.52339   0.42047   0.03771   0.00000  Uiso   1.00
C269   C     0.50051   0.38668   1.01197   0.00000  Uiso   1.00
C270   C     0.51003   0.35300   1.00284   0.00000  Uiso   1.00
C271   C     0.54245   0.35221   0.02063   0.00000  Uiso   1.00
C272   C     0.56590   0.38647   0.04379   0.00000  Uiso   1.00
C273   C     0.55620   0.42016   0.05351   0.00000  Uiso   1.00
C274   C     0.52479   0.28356   0.04148   0.00000  Uiso   1.00
H275   H     0.55056   0.11947   0.04093   0.00000  Uiso   1.00
H276   H     0.55377   0.18841   0.05239   0.00000  Uiso   1.00
H277   H     0.44305   0.15533   1.03193   0.00000  Uiso   1.00
H278   H     0.43954   0.08668   1.01944   0.00000  Uiso   1.00
H279   H     0.54903   0.24452   0.00046   0.00000  Uiso   1.00
O280   O     0.49758   0.21497   0.05428   0.00000  Uiso   1.00
O281   O     0.55170   0.31784   0.01580   0.00000  Uiso   1.00
C282   C     0.49493   0.09756   0.02811   0.00000  Uiso   1.00
C283   C     0.52716   0.12707   0.03672   0.00000  Uiso   1.00
C284   C     0.52905   0.16659   0.04303   0.00000  Uiso   1.00
C285   C     0.49863   0.17710   0.04089   0.00000  Uiso   1.00
C286   C     0.46677   0.14775   1.03219   0.00000  Uiso   1.00
C287   C     0.46490   0.10856   0.02516   0.00000  Uiso   1.00
C288   C     0.52657   0.24768   0.03039   0.00000  Uiso   1.00
H289   H     0.49188   0.32732   0.98290   0.00000  Uiso   1.00
H290   H     0.59112   0.38649   0.05683   0.00000  Uiso   1.00
H291   H     0.47497   0.38613   0.99979   0.00000  Uiso   1.00
H292   H     0.50156   0.28562   1.07054   0.00000  Uiso   1.00
H293   H     0.57379   0.44545   0.07532   0.00000  Uiso   1.00
loop_
_geom_bond_atom_site_label_1
_geom_bond_atom_site_label_2
_geom_bond_distance
_geom_bond_site_symmetry_2
_ccdc_geom_bond_type
Yb0    O3      2.074   .     S
Yb0    O4      2.090   .     S
Yb0    O7      2.096   .     S
Yb0    O5      2.155   1_556 S
Yb0    O8      2.097   1_556 S
Yb0    O12     2.141   1_556 S
Yb1    O9      2.078   .     S
Yb1    O10     2.089   .     S
Yb1    O14     2.096   .     S
Yb1    O6      2.155   1_554 S
Yb1    O13     2.149   1_554 S
Yb1    O16     2.093   1_554 S
C2     O14     1.293   .     A
C2     C138    1.475   .     S
C2     O16     1.292   1_554 A
O3     C11     1.291   .     A
O4     C11     1.295   .     A
O5     C15     1.274   .     A
O5     Yb0     2.155   1_554 S
O6     Yb1     2.155   1_556 S
O6     C15     1.275   1_556 A
O7     C17     1.292   .     A
O8     Yb0     2.097   1_554 S
O8     C17     1.292   1_554 A
O9     C18     1.290   .     A
O10    C18     1.295   .     A
C11    C74     1.466   .     S
O12    C19     1.271   .     A
O12    Yb0     2.141   1_554 S
O13    Yb1     2.149   1_556 S
O13    C19     1.269   1_556 A
C15    O6      1.275   1_554 A
C15    C256    1.478   1_554 S
O16    Yb1     2.093   1_556 S
O16    C2      1.292   1_556 A
C17    C204    1.475   .     S
C17    O8      1.292   1_556 A
C18    C60     1.465   .     S
C19    C268    1.474   .     S
C19    O13     1.269   1_554 A
Yb20   O23     2.093   .     S
Yb20   O27     2.099   .     S
Yb20   O24     2.112   1_455 S
Yb20   O25     2.174   1_455 S
Yb20   O28     2.101   1_556 S
Yb20   O32     2.176   1_556 S
Yb21   O29     2.174   .     S
Yb21   O34     2.101   .     S
Yb21   O26     2.234   1_554 S
Yb21   O30     2.148   1_655 S
Yb21   O33     2.135   1_655 S
Yb21   O36     2.112   1_554 S
C22    O34     1.283   .     A
C22    C164    1.478   .     S
C22    O36     1.291   1_554 A
O23    C31     1.290   1_455 A
O24    C31     1.295   .     A
O24    Yb20    2.112   1_655 S
O25    C35     1.271   .     A
O25    Yb20    2.174   1_655 S
O26    C35     1.294   .     A
O26    Yb21    2.234   1_556 S
O27    C37     1.292   .     A
O28    Yb20    2.101   1_554 S
O28    C37     1.293   1_554 A
O29    C38     1.274   1_655 A
O30    C38     1.267   .     A
O30    Yb21    2.148   1_455 S
C31    C86     1.482   .     S
C31    O23     1.290   1_655 A
O32    C39     1.273   .     A
O32    Yb20    2.176   1_554 S
O33    C39     1.265   .     A
O33    Yb21    2.135   1_455 S
C35    C190    1.470   .     S
O36    Yb21    2.112   1_556 S
O36    C22     1.291   1_556 A
C37    C230    1.476   .     S
C37    O28     1.293   1_556 A
C38    C100    1.480   .     S
C38    O29     1.274   1_455 A
C39    C152    1.478   .     S
Yb40   O43     2.114   .     S
Yb40   O47     2.104   .     S
Yb40   O44     2.102   1_565 S
Yb40   O45     2.150   1_565 S
Yb40   O48     2.092   1_554 S
Yb40   O52     2.155   1_554 S
Yb41   O49     2.116   .     S
Yb41   O54     2.097   .     S
Yb41   O46     2.147   1_556 S
Yb41   O50     2.100   1_545 S
Yb41   O53     2.141   1_545 S
Yb41   O56     2.092   1_556 S
C42    O54     1.294   .     A
C42    C178    1.474   .     S
C42    O56     1.291   1_556 A
O43    C51     1.293   1_565 A
O44    C51     1.290   .     A
O44    Yb40    2.102   1_545 S
O45    C55     1.271   .     A
O45    Yb40    2.150   1_545 S
O46    C55     1.268   .     A
O46    Yb41    2.147   1_554 S
O47    C57     1.294   .     A
O48    Yb40    2.092   1_556 S
O48    C57     1.290   1_556 A
O49    C58     1.292   1_545 A
O50    C58     1.290   .     A
O50    Yb41    2.100   1_565 S
C51    C112    1.482   .     S
C51    O43     1.293   1_545 A
O52    C59     1.272   .     A
O52    Yb40    2.155   1_556 S
O53    C59     1.270   .     A
O53    Yb41    2.141   1_565 S
C55    C282    1.483   .     S
O56    Yb41    2.092   1_554 S
O56    C42     1.291   1_554 A
C57    C216    1.475   .     S
C57    O48     1.290   1_554 A
C58    C126    1.481   .     S
C58    O49     1.292   1_565 A
C59    C242    1.483   .     S
C60    C61     1.402   .     A
C60    C65     1.405   .     A
C61    C62     1.393   .     A
C61    H83     1.084   .     S
C62    C63     1.412   .     A
C62    H81     1.083   .     S
C63    C64     1.397   .     A
C63    O73     1.401   .     S
C64    C65     1.393   .     A
C64    H82     1.083   .     S
C65    H85     1.084   .     S
C66    O73     1.398   .     S
C66    C80     1.324   .     D
C66    H84     1.088   .     S
H67    C75     1.083   .     S
H68    C76     1.082   .     S
H69    C78     1.083   .     S
H70    C79     1.084   .     S
H71    C80     1.088   .     S
O72    C77     1.399   .     S
O72    C80     1.398   .     S
C74    C75     1.402   .     A
C74    C79     1.404   .     A
C75    C76     1.394   .     A
C76    C77     1.410   .     A
C77    C78     1.396   .     A
C78    C79     1.393   .     A
C86    C91     1.408   .     A
C86    C87     1.407   1_655 A
C87    C88     1.397   .     A
C87    H109    1.083   .     S
C87    C86     1.407   1_455 A
C88    H107    1.083   .     S
C88    C89     1.402   1_455 A
C89    C90     1.402   .     A
C89    O99     1.403   .     S
C89    C88     1.402   1_655 A
C90    C91     1.403   .     A
C90    H108    1.082   .     S
C91    H111    1.083   .     S
C92    H110    1.090   .     S
C92    O99     1.406   1_455 S
C92    C106    1.337   1_455 D
H93    C101    1.083   .     S
H94    C102    1.082   .     S
H95    C104    1.083   .     S
H96    C105    1.083   .     S
H97    C106    1.086   .     S
O98    C103    1.406   .     S
O98    C106    1.405   1_455 S
O99    C92     1.406   1_655 S
C100   C105    1.402   .     A
C100   C101    1.407   1_455 A
C101   C102    1.405   .     A
C101   C100    1.407   1_655 A
C102   C103    1.411   1_655 A
C103   C104    1.398   .     A
C103   C102    1.411   1_455 A
C104   C105    1.395   .     A
C106   C92     1.337   1_655 D
C106   O98     1.405   1_655 S
C112   C117    1.405   .     A
C112   C113    1.405   1_545 A
C113   C114    1.403   .     A
C113   H135    1.083   .     S
C113   C112    1.405   1_565 A
C114   H133    1.082   .     S
C114   C115    1.410   1_565 A
C115   C116    1.399   .     A
C115   O125    1.409   .     S
C115   C114    1.410   1_545 A
C116   C117    1.399   .     A
C116   H134    1.083   .     S
C117   H137    1.083   .     S
C118   C132    1.338   .     D
C118   H136    1.087   .     S
C118   O125    1.406   1_565 S
H119   C127    1.083   .     S
H120   C128    1.082   .     S
H121   C130    1.083   .     S
H122   C131    1.083   .     S
H123   C132    1.087   1_545 S
O124   C129    1.408   .     S
O124   C132    1.406   .     S
O125   C118    1.406   1_545 S
C126   C131    1.404   .     A
C126   C127    1.406   1_565 A
C127   C128    1.404   .     A
C127   C126    1.406   1_545 A
C128   C129    1.411   1_545 A
C129   C130    1.399   .     A
C129   C128    1.411   1_565 A
C130   C131    1.397   .     A
C132   H123    1.087   1_565 S
C138   C139    1.403   .     A
C138   C143    1.402   .     A
C139   C140    1.398   .     A
C139   H161    1.083   .     S
C140   C141    1.412   .     A
C140   H159    1.079   .     S
C141   O151    1.408   .     S
C141   C142    1.401   1_554 A
C142   H160    1.083   .     S
C142   C141    1.401   1_556 A
C142   C143    1.397   1_556 A
C143   C142    1.397   1_554 A
C143   H163    1.083   1_554 S
C144   O151    1.405   .     S
C144   C158    1.332   .     D
C144   H162    1.084   .     S
H145   C153    1.084   .     S
H146   C154    1.082   .     S
H147   C156    1.082   .     S
H148   C157    1.082   .     S
H149   C158    1.088   1_556 S
O150   C155    1.407   .     S
O150   C158    1.405   .     S
C152   C157    1.406   .     A
C152   C153    1.405   1_554 A
C153   C154    1.390   .     A
C153   C152    1.405   1_556 A
C154   C155    1.406   1_556 A
C155   C156    1.403   .     A
C155   C154    1.406   1_554 A
C156   C157    1.404   .     A
C158   H149    1.088   1_554 S
H163   C143    1.083   1_556 S
C164   C169    1.405   .     A
C164   C165    1.402   1_554 A
C165   C166    1.400   .     A
C165   H187    1.084   .     S
C165   C164    1.402   1_556 A
C166   H185    1.080   .     S
C166   C167    1.413   1_556 A
C167   C168    1.399   .     A
C167   O177    1.408   .     S
C167   C166    1.413   1_554 A
C168   C169    1.397   .     A
C168   H186    1.084   .     S
C169   H189    1.083   .     S
C170   H188    1.085   .     S
C170   O177    1.404   1_556 S
C170   C184    1.332   1_556 D
H171   C179    1.083   .     S
H172   C180    1.082   .     S
H173   C182    1.083   .     S
H174   C183    1.083   .     S
H175   C184    1.088   .     S
O176   C181    1.404   .     S
O176   C184    1.403   1_556 S
O177   C170    1.404   1_554 S
C178   C183    1.403   .     A
C178   C179    1.405   1_556 A
C179   C180    1.397   .     A
C179   C178    1.405   1_554 A
C180   C181    1.409   1_554 A
C181   C182    1.400   .     A
C181   C180    1.409   1_556 A
C182   C183    1.397   .     A
C184   C170    1.332   1_554 D
C184   O176    1.403   1_554 S
C190   C195    1.401   .     A
C190   C191    1.402   1_556 A
C191   C192    1.398   .     A
C191   H213    1.083   .     S
C191   C190    1.402   1_554 A
C192   H211    1.081   .     S
C192   C193    1.411   1_554 A
C193   C194    1.399   .     A
C193   O203    1.407   .     S
C193   C192    1.411   1_556 A
C194   C195    1.396   .     A
C194   H212    1.083   .     S
C195   H215    1.079   .     S
C196   O203    1.405   .     S
C196   C210    1.332   .     D
C196   H214    1.087   1_556 S
H197   C205    1.083   .     S
H198   C206    1.083   .     S
H199   C208    1.082   .     S
H200   C209    1.083   .     S
H201   C210    1.089   .     S
O202   C207    1.397   1_554 S
O202   C210    1.402   1_554 S
C204   C205    1.405   .     A
C204   C209    1.405   1_556 A
C205   C206    1.398   .     A
C206   C207    1.402   .     A
C207   O202    1.397   1_556 S
C207   C208    1.399   1_556 A
C208   C209    1.399   .     A
C208   C207    1.399   1_554 A
C209   C204    1.405   1_554 A
C210   O202    1.402   1_556 S
H214   C196    1.087   1_554 S
C216   C221    1.403   .     A
C216   C217    1.405   1_554 A
C217   C218    1.398   .     A
C217   H239    1.082   .     S
C217   C216    1.405   1_556 A
C218   H237    1.082   .     S
C218   C219    1.407   1_556 A
C219   C220    1.399   .     A
C219   O229    1.404   .     S
C219   C218    1.407   1_554 A
C220   C221    1.397   .     A
C220   H238    1.081   .     S
C221   H241    1.083   .     S
C222   C236    1.335   .     D
C222   H240    1.088   .     S
C222   O229    1.403   1_556 S
H223   C231    1.083   .     S
H224   C232    1.078   .     S
H225   C234    1.083   .     S
H226   C235    1.083   .     S
H227   C236    1.083   1_554 S
O228   C233    1.413   .     S
O228   C236    1.406   .     S
O229   C222    1.403   1_554 S
C230   C235    1.402   .     A
C230   C231    1.403   1_556 A
C231   C232    1.399   .     A
C231   C230    1.403   1_554 A
C232   C233    1.415   1_554 A
C233   C234    1.402   .     A
C233   C232    1.415   1_556 A
C234   C235    1.399   .     A
C236   H227    1.083   1_556 S
C242   C243    1.408   .     A
C242   C247    1.407   .     A
C243   C244    1.405   .     A
C243   H265    1.083   1_556 S
C244   C245    1.408   .     A
C244   H263    1.082   1_556 S
C245   C246    1.395   .     A
C245   O255    1.402   .     S
C246   C247    1.393   .     A
C246   H264    1.083   .     S
C247   H267    1.083   .     S
C248   H266    1.087   .     S
C248   O255    1.402   1_554 S
C248   C262    1.335   1_554 D
H249   C257    1.083   .     S
H250   C258    1.083   .     S
H251   C260    1.083   .     S
H252   C261    1.083   .     S
H253   C262    1.089   .     S
O254   C259    1.408   .     S
O254   C262    1.405   1_554 S
O255   C248    1.402   1_556 S
C256   C257    1.405   .     A
C256   C261    1.405   1_556 A
C256   C15     1.478   1_556 S
C257   C258    1.396   .     A
C258   C259    1.409   1_556 A
C259   C260    1.400   .     A
C259   C258    1.409   1_554 A
C260   C261    1.401   .     A
C261   C256    1.405   1_554 A
C262   C248    1.335   1_556 D
C262   O254    1.405   1_556 S
H263   C244    1.082   1_554 S
H265   C243    1.083   1_554 S
C268   C273    1.404   .     A
C268   C269    1.403   1_554 A
C269   C270    1.395   .     A
C269   H291    1.084   .     S
C269   C268    1.403   1_556 A
C270   H289    1.083   .     S
C270   C271    1.409   1_556 A
C271   C272    1.401   .     A
C271   O281    1.407   .     S
C271   C270    1.409   1_554 A
C272   C273    1.401   .     A
C272   H290    1.083   .     S
C273   H293    1.083   .     S
C274   O281    1.405   .     S
C274   C288    1.334   .     D
C274   H292    1.089   1_554 S
H275   C283    1.082   .     S
H276   C284    1.082   .     S
H277   C286    1.083   .     S
H278   C287    1.083   1_556 S
H279   C288    1.087   .     S
O280   C285    1.403   .     S
O280   C288    1.402   .     S
C282   C283    1.408   .     A
C282   C287    1.406   .     A
C283   C284    1.403   .     A
C284   C285    1.409   .     A
C285   C286    1.396   1_554 A
C286   C285    1.396   1_556 A
C286   C287    1.393   1_556 A
C287   H278    1.083   1_554 S
C287   C286    1.393   1_554 A
H292   C274    1.089   1_556 S
