data_kag+N106+E183
_audit_creation_date              2025-01-21
_audit_creation_method            'Materials Studio'
_symmetry_space_group_name_H-M    'P1'
_symmetry_Int_Tables_number       1
_symmetry_cell_setting            triclinic
loop_
_symmetry_equiv_pos_as_xyz
  x,y,z
_cell_length_a                    28.7468
_cell_length_b                    30.4463
_cell_length_c                    12.2526
_cell_angle_alpha                 92.5573
_cell_angle_beta                  81.8553
_cell_angle_gamma                 127.1845
loop_
_atom_site_label
_atom_site_type_symbol
_atom_site_fract_x
_atom_site_fract_y
_atom_site_fract_z
_atom_site_U_iso_or_equiv
_atom_site_adp_type
_atom_site_occupancy
Y0     Y     0.53595   0.56867  -0.00901   0.00000  Uiso   1.00
Y1     Y     0.46795   0.43635   1.02652   0.00000  Uiso   1.00
O2     O     0.61221   0.56404  -0.04281   0.00000  Uiso   1.00
O3     O     0.52140   0.49969   0.88293   0.00000  Uiso   1.00
C4     C     0.43353   0.33376   1.07068   0.00000  Uiso   1.00
O5     O     0.43288   0.43036   0.86795   0.00000  Uiso   1.00
O6     O     0.59942   0.66142  -0.03215   0.00000  Uiso   1.00
O7     O     0.52874   0.61948   0.87555   0.00000  Uiso   1.00
O8     O     0.56466   0.47706   1.02698   0.00000  Uiso   1.00
O9     O     0.49867   0.50780   0.13405   0.00000  Uiso   1.00
O10    O     0.54218   0.59180   0.17114   0.00000  Uiso   1.00
O11    O     0.43756   0.52639   0.00845   0.00000  Uiso   1.00
C12    C     0.61207   0.52474   0.99170   0.00000  Uiso   1.00
O13    O     0.39478   0.44206   1.08769   0.00000  Uiso   1.00
C14    C     0.47576   0.47301   0.82137   0.00000  Uiso   1.00
O15    O     0.43467   0.35083   0.97798   0.00000  Uiso   1.00
O16    O     0.44814   0.36916   0.14268   0.00000  Uiso   1.00
C17    C     0.57264   0.66567  -0.09923   0.00000  Uiso   1.00
C18    C     0.39266   0.48044   0.05717   0.00000  Uiso   1.00
C19    C     0.51563   0.54588   0.21308   0.00000  Uiso   1.00
Y20    Y     0.96606   0.52114   0.00630   0.00000  Uiso   1.00
Y21    Y     0.04030   0.47602   1.00901   0.00000  Uiso   1.00
O22    O     0.05706   0.60232  -0.01717   0.00000  Uiso   1.00
O23    O     1.03406   0.52296   0.88136   0.00000  Uiso   1.00
C24    C     0.11685   0.45935   1.06016   0.00000  Uiso   1.00
O25    O     0.02398   0.44939   0.83457   0.00000  Uiso   1.00
O26    O     0.88477   0.51263   0.07627   0.00000  Uiso   1.00
O27    O     0.92711   0.55495   0.92165   0.00000  Uiso   1.00
O28    O     0.10534   0.56894   1.01931   0.00000  Uiso   1.00
O29    O    -0.02705   0.47427   0.13322   0.00000  Uiso   1.00
O30    O     0.99136   0.55175   0.17529   0.00000  Uiso   1.00
O31    O     0.90706   0.43130  -0.03477   0.00000  Uiso   1.00
C32    C     0.10393   0.60937   1.00156   0.00000  Uiso   1.00
O33    O     0.94747   0.39750   1.03907   0.00000  Uiso   1.00
C34    C     0.02114   0.48470   0.80306   0.00000  Uiso   1.00
O35    O     0.08848   0.43830   0.97969   0.00000  Uiso   1.00
O36    O     0.10341   0.48661   0.11709   0.00000  Uiso   1.00
C37    C     0.88407   0.53718  -0.00241   0.00000  Uiso   1.00
C38    C     0.90486   0.39061  -0.00163   0.00000  Uiso   1.00
C39    C    -0.00932   0.51454   0.20847   0.00000  Uiso   1.00
Y40    Y     0.47349   0.02668   1.00830   0.00000  Uiso   1.00
Y41    Y     0.54019   0.97401  -0.04880   0.00000  Uiso   1.00
O42    O     0.39700   0.93699   1.04241   0.00000  Uiso   1.00
O43    O     0.48386  -0.02855   0.10382   0.00000  Uiso   1.00
C44    C     0.57684   0.91290  -0.11983   0.00000  Uiso   1.00
O45    O     0.57070   0.99858   0.11831   0.00000  Uiso   1.00
O46    O     0.42833   0.06364   0.97806   0.00000  Uiso   1.00
O47    O     0.45948   0.07775   0.13005   0.00000  Uiso   1.00
O48    O     0.44254   0.90389  -0.04918   0.00000  Uiso   1.00
O49    O     0.53019   1.02937   0.85594   0.00000  Uiso   1.00
O50    O     0.44250  -0.00026   0.84192   0.00000  Uiso   1.00
O51    O     0.57044   0.09639   1.01325   0.00000  Uiso   1.00
C52    C     0.39560   0.89745  -0.00289   0.00000  Uiso   1.00
O53    O     0.61653   0.06415  -0.08005   0.00000  Uiso   1.00
C54    C     0.52760  -0.00771   0.16856   0.00000  Uiso   1.00
O55    O     0.59001   0.93978  -0.03398   0.00000  Uiso   1.00
O56    O     0.54723   0.92000   0.82684   0.00000  Uiso   1.00
C57    C     0.43532   0.08766   1.06709   0.00000  Uiso   1.00
C58    C     0.61755   0.10316   0.96722   0.00000  Uiso   1.00
C59    C     0.48621   1.00732   0.79143   0.00000  Uiso   1.00
C60    C     0.50564   0.53350   0.33180   0.00000  Uiso   1.00
C61    C     0.46754   0.48633   0.51390   0.00000  Uiso   1.00
C62    C     0.51581   0.53829   0.52719   0.00000  Uiso   1.00
S63    S     0.43062   0.44139   0.62522   0.00000  Uiso   1.00
S64    S     0.53776   0.55455   0.65366   0.00000  Uiso   1.00
S65    S     0.44820   0.46857   0.38594   0.00000  Uiso   1.00
S66    S     0.55260   0.58319   0.41550   0.00000  Uiso   1.00
C67    C     0.48019   0.48950   0.70758   0.00000  Uiso   1.00
C68    C     0.01308   0.48953   0.68987   0.00000  Uiso   1.00
C69    C     1.00225   0.47571   0.49445   0.00000  Uiso   1.00
C70    C     0.01141   0.52431   0.51603   0.00000  Uiso   1.00
S71    S     0.99261   0.45330   0.36454   0.00000  Uiso   1.00
S72    S     0.01295   0.55994   0.41168   0.00000  Uiso   1.00
S73    S     1.00075   0.44010   0.59881   0.00000  Uiso   1.00
S74    S     0.02050   0.54647   0.64617   0.00000  Uiso   1.00
C75    C     0.00004   0.51025   0.32086   0.00000  Uiso   1.00
C76    C     0.52063  -0.00165   0.28752   0.00000  Uiso   1.00
C77    C     0.53515   1.00915   0.48088   0.00000  Uiso   1.00
C78    C     0.47871  -0.00977   0.47920   0.00000  Uiso   1.00
S79    S     0.56004   1.02113   0.60415   0.00000  Uiso   1.00
S80    S     0.43625  -0.02047   0.60054   0.00000  Uiso   1.00
S81    S     0.57758   1.01978   0.35952   0.00000  Uiso   1.00
S82    S     0.45386  -0.02157   0.35593   0.00000  Uiso   1.00
C83    C     0.49322   1.00110   0.67255   0.00000  Uiso   1.00
C84    C     0.33603   0.47134   0.07553   0.00000  Uiso   1.00
C85    C     0.23570   0.43730   1.06111   0.00000  Uiso   1.00
C86    C     0.26118   0.48631   0.10988   0.00000  Uiso   1.00
S87    S     0.16725   0.40525   1.02704   0.00000  Uiso   1.00
S88    S     0.22218   0.51134   0.13876   0.00000  Uiso   1.00
S89    S     0.27563   0.41324   1.02922   0.00000  Uiso   1.00
S90    S     0.33221   0.52192   0.13115   0.00000  Uiso   1.00
C91    C     0.16436   0.45691   1.07944   0.00000  Uiso   1.00
C92    C     0.85050   0.33469   0.99136   0.00000  Uiso   1.00
C93    C     0.74788   0.25733  -0.01972   0.00000  Uiso   1.00
C94    C     0.77738   0.23532   0.97582   0.00000  Uiso   1.00
S95    S     0.67432   0.21474  -0.02200   0.00000  Uiso   1.00
S96    S     0.73874   0.16612   0.96402   0.00000  Uiso   1.00
S97    S     0.78593   0.32623  -0.01052   0.00000  Uiso   1.00
S98    S     0.85083   0.27836   0.98343   0.00000  Uiso   1.00
C99    C     0.67401   0.15818  -0.03236   0.00000  Uiso   1.00
C100   C     0.83577   0.54119   0.99629   0.00000  Uiso   1.00
C101   C     0.74045   0.52364   0.04322   0.00000  Uiso   1.00
C102   C     0.76634   0.55630   0.94888   0.00000  Uiso   1.00
S103   S     0.67143   0.49998   0.09729   0.00000  Uiso   1.00
S104   S     0.72766   0.57285   0.89229   0.00000  Uiso   1.00
S105   S     0.77725   0.50596   0.10037   0.00000  Uiso   1.00
S106   S     0.83453   0.57640   0.89207   0.00000  Uiso   1.00
C107   C     0.66801   0.53345  -0.00644   0.00000  Uiso   1.00
C108   C     0.33880   0.84238   0.99985   0.00000  Uiso   1.00
C109   C     0.23399   0.76504   0.00905   0.00000  Uiso   1.00
C110   C     0.26369   0.74317   0.99093   0.00000  Uiso   1.00
S111   S     0.15929   0.72180   0.01819   0.00000  Uiso   1.00
S112   S     0.22484   0.67422   0.98149   0.00000  Uiso   1.00
S113   S     0.27348   0.83422   0.02142   0.00000  Uiso   1.00
S114   S     0.33813   0.78591   0.97860   0.00000  Uiso   1.00
C115   C     0.15930   0.66548  -0.00007   0.00000  Uiso   1.00
C116   C     0.58996   0.87365  -0.14700   0.00000  Uiso   1.00
C117   C     0.61572   0.81210  -0.12029   0.00000  Uiso   1.00
C118   C     0.57367   0.78636   0.81208   0.00000  Uiso   1.00
S119   S     0.63734   0.77708  -0.07041   0.00000  Uiso   1.00
S120   S     0.54456   0.72009   0.78293   0.00000  Uiso   1.00
S121   S     0.63843   0.87491  -0.07712   0.00000  Uiso   1.00
S122   S     0.54713   0.81923   0.77309   0.00000  Uiso   1.00
C123   C     0.58704   0.71865   0.86616   0.00000  Uiso   1.00
C124   C     0.42020   0.27969   0.08884   0.00000  Uiso   1.00
C125   C     0.40157   0.19149   1.05008   0.00000  Uiso   1.00
C126   C     0.42681   0.20755   0.14383   0.00000  Uiso   1.00
S127   S     0.38924   0.13487   0.99079   0.00000  Uiso   1.00
S128   S     0.44513   0.16979   0.19549   0.00000  Uiso   1.00
S129   S     0.38966   0.23213   0.99011   0.00000  Uiso   1.00
S130   S     0.44406   0.26750   0.19654   0.00000  Uiso   1.00
C131   C     0.42083   0.12626   1.08828   0.00000  Uiso   1.00
loop_
_geom_bond_atom_site_label_1
_geom_bond_atom_site_label_2
_geom_bond_distance
_geom_bond_site_symmetry_2
_ccdc_geom_bond_type
Y0     O2      2.260   .     S
Y0     O6      2.254   .     S
Y0     O9      2.239   .     S
Y0     O10     2.285   .     S
Y0     O11     2.271   .     S
Y0     O3      2.277   1_554 S
Y0     O7      2.259   1_554 S
Y1     O3      2.265   .     S
Y1     O5      2.264   .     S
Y1     O8      2.259   .     S
Y1     O13     2.236   .     S
Y1     O15     2.249   .     S
Y1     O9      2.236   1_556 S
Y1     O16     2.271   1_556 S
O2     C12     1.284   1_554 A
O3     C14     1.374   .     S
O3     Y0      2.277   1_556 S
C4     O15     1.258   .     A
C4     O16     1.261   1_556 A
C4     C124    1.467   1_556 S
O5     C14     1.210   .     D
O6     C17     1.262   .     A
O7     Y0      2.259   1_556 S
O7     C17     1.262   1_556 A
O8     C12     1.284   .     A
O9     C19     1.367   .     S
O9     Y1      2.236   1_554 S
O10    C19     1.210   .     D
O11    C18     1.286   .     A
C12    O2      1.284   1_556 A
C12    C107    1.467   1_556 S
O13    C18     1.281   1_556 A
C14    C67     1.465   .     S
O16    Y1      2.271   1_554 S
O16    C4      1.261   1_554 A
C17    O7      1.262   1_554 A
C17    C123    1.469   1_554 S
C18    C84     1.461   .     S
C18    O13     1.281   1_554 A
C19    C60     1.463   .     S
Y20    O26     2.232   .     S
Y20    O30     2.263   .     S
Y20    O31     2.263   .     S
Y20    O22     2.252   1_655 S
Y20    O23     2.280   1_554 S
Y20    O27     2.282   1_554 S
Y20    O29     2.263   1_655 S
Y21    O25     2.262   .     S
Y21    O28     2.271   .     S
Y21    O35     2.261   .     S
Y21    O23     2.260   1_455 S
Y21    O29     2.262   1_556 S
Y21    O33     2.250   1_455 S
Y21    O36     2.255   1_556 S
O22    Y20     2.252   1_455 S
O22    C32     1.284   1_554 A
O23    Y20     2.280   1_556 S
O23    Y21     2.260   1_655 S
O23    C34     1.376   1_655 S
C24    O35     1.260   .     A
C24    C91     1.464   .     S
C24    O36     1.259   1_556 A
O25    C34     1.210   .     D
O26    C37     1.256   .     A
O27    Y20     2.282   1_556 S
O27    C37     1.264   1_556 A
O28    C32     1.285   .     A
O29    C39     1.375   .     S
O29    Y20     2.263   1_455 S
O29    Y21     2.262   1_554 S
O30    C39     1.209   1_655 D
O31    C38     1.283   .     A
C32    O22     1.284   1_556 A
C32    C115    1.470   1_556 S
O33    Y21     2.250   1_655 S
O33    C38     1.283   1_556 A
C34    C68     1.466   .     S
C34    O23     1.376   1_455 S
O36    Y21     2.255   1_554 S
O36    C24     1.259   1_554 A
C37    O27     1.264   1_554 A
C37    C100    1.468   1_554 S
C38    O33     1.283   1_554 A
C38    C92     1.469   1_554 S
C39    C75     1.466   .     S
C39    O30     1.209   1_455 D
Y40    O46     2.243   .     S
Y40    O50     2.259   .     S
Y40    O51     2.272   .     S
Y40    O42     2.247   1_545 S
Y40    O43     2.273   1_556 S
Y40    O47     2.277   1_556 S
Y40    O49     2.267   1_545 S
Y41    O45     2.258   .     S
Y41    O48     2.279   .     S
Y41    O55     2.251   .     S
Y41    O43     2.264   1_565 S
Y41    O49     2.268   1_554 S
Y41    O53     2.252   1_565 S
Y41    O56     2.271   1_554 S
O42    Y40     2.247   1_565 S
O42    C52     1.283   1_556 A
O43    C54     1.373   .     S
O43    Y40     2.273   1_554 S
O43    Y41     2.264   1_545 S
C44    O55     1.257   .     A
C44    C116    1.468   .     S
C44    O56     1.261   1_554 A
O45    C54     1.207   1_565 D
O46    C57     1.256   .     A
O47    Y40     2.277   1_554 S
O47    C57     1.263   1_554 A
O48    C52     1.286   .     A
O49    C59     1.373   .     S
O49    Y40     2.267   1_565 S
O49    Y41     2.268   1_556 S
O50    C59     1.207   1_545 D
O51    C58     1.285   .     A
C52    O42     1.283   1_554 A
C52    C108    1.469   1_554 S
O53    Y41     2.252   1_545 S
O53    C58     1.284   1_554 A
C54    C76     1.462   .     S
C54    O45     1.207   1_545 D
O56    Y41     2.271   1_556 S
O56    C44     1.261   1_556 A
C57    C131    1.468   .     S
C57    O47     1.263   1_556 A
C58    O53     1.284   1_556 A
C58    C99     1.468   1_556 S
C59    C83     1.462   .     S
C59    O50     1.207   1_565 D
C60    S65     1.713   .     A
C60    S66     1.717   .     A
C61    C62     1.357   .     A
C61    S63     1.691   .     A
C61    S65     1.693   .     A
C62    S64     1.696   .     A
C62    S66     1.694   .     A
S63    C67     1.717   .     A
S64    C67     1.715   .     A
C68    S74     1.715   .     A
C68    S73     1.718   1_455 A
C69    S71     1.696   .     A
C69    S73     1.692   .     A
C69    C70     1.358   1_655 A
C70    S72     1.692   .     A
C70    S74     1.696   .     A
C70    C69     1.358   1_455 A
S71    C75     1.715   1_655 A
S72    C75     1.718   .     A
S73    C68     1.718   1_655 A
C75    S71     1.715   1_455 A
C76    S82     1.714   .     A
C76    S81     1.718   1_545 A
C77    S79     1.694   .     A
C77    S81     1.690   .     A
C77    C78     1.358   1_565 A
C78    S80     1.690   .     A
C78    S82     1.693   .     A
C78    C77     1.358   1_545 A
S79    C83     1.714   .     A
S80    C83     1.717   1_545 A
S81    C76     1.718   1_565 A
C83    S80     1.717   1_565 A
C84    S90     1.714   .     A
C84    S89     1.715   1_554 A
C85    S87     1.695   .     A
C85    S89     1.694   .     A
C85    C86     1.358   1_556 A
C86    S88     1.691   .     A
C86    S90     1.692   .     A
C86    C85     1.358   1_554 A
S87    C91     1.716   .     A
S88    C91     1.715   1_554 A
S89    C84     1.715   1_556 A
C91    S88     1.715   1_556 A
C92    S98     1.719   .     A
C92    S97     1.717   1_556 A
C92    C38     1.469   1_556 S
C93    S95     1.689   .     A
C93    S97     1.688   .     A
C93    C94     1.357   1_554 A
C94    S96     1.698   .     A
C94    S98     1.699   .     A
C94    C93     1.357   1_556 A
S95    C99     1.716   .     A
S96    C99     1.720   1_556 A
S97    C92     1.717   1_554 A
C99    S96     1.720   1_554 A
C99    C58     1.468   1_554 S
C100   S106    1.721   .     A
C100   S105    1.715   1_556 A
C100   C37     1.468   1_556 S
C101   S103    1.684   .     A
C101   S105    1.683   .     A
C101   C102    1.358   1_554 A
C102   S104    1.702   .     A
C102   S106    1.704   .     A
C102   C101    1.358   1_556 A
S103   C107    1.714   .     A
S104   C107    1.721   1_556 A
S105   C100    1.715   1_554 A
C107   S104    1.721   1_554 A
C107   C12     1.467   1_554 S
C108   S114    1.716   .     A
C108   S113    1.720   1_556 A
C108   C52     1.469   1_556 S
C109   S111    1.698   .     A
C109   S113    1.697   .     A
C109   C110    1.357   1_554 A
C110   S112    1.688   .     A
C110   S114    1.690   .     A
C110   C109    1.357   1_556 A
S111   C115    1.719   .     A
S112   C115    1.718   1_556 A
S113   C108    1.720   1_554 A
C115   S112    1.718   1_554 A
C115   C32     1.470   1_554 S
C116   S121    1.717   .     A
C116   S122    1.718   1_554 A
C117   S119    1.692   .     A
C117   S121    1.691   .     A
C117   C118    1.357   1_554 A
C118   S120    1.696   .     A
C118   S122    1.697   .     A
C118   C117    1.357   1_556 A
S119   C123    1.716   1_554 A
S120   C123    1.719   .     A
S122   C116    1.718   1_556 A
C123   S119    1.716   1_556 A
C123   C17     1.469   1_556 S
C124   S130    1.720   .     A
C124   S129    1.714   1_554 A
C124   C4      1.467   1_554 S
C125   S127    1.687   .     A
C125   S129    1.689   .     A
C125   C126    1.357   1_556 A
C126   S128    1.700   .     A
C126   S130    1.699   .     A
C126   C125    1.357   1_554 A
S127   C131    1.716   .     A
S128   C131    1.719   1_554 A
S129   C124    1.714   1_556 A
C131   S128    1.719   1_556 A
