data_kag+N248+E220
_audit_creation_date              2025-01-21
_audit_creation_method            'Materials Studio'
_symmetry_space_group_name_H-M    'P1'
_symmetry_Int_Tables_number       1
_symmetry_cell_setting            triclinic
loop_
_symmetry_equiv_pos_as_xyz
  x,y,z
_cell_length_a                    24.5235
_cell_length_b                    26.1429
_cell_length_c                    11.2937
_cell_angle_alpha                 91.6035
_cell_angle_beta                  89.1991
_cell_angle_gamma                 129.6859
loop_
_atom_site_label
_atom_site_type_symbol
_atom_site_fract_x
_atom_site_fract_y
_atom_site_fract_z
_atom_site_U_iso_or_equiv
_atom_site_adp_type
_atom_site_occupancy
O0     O     0.53598   0.56254   0.82285   0.00000  Uiso   1.00
Yb1    Yb    0.48221   0.44256   1.01005   0.00000  Uiso   1.00
C2     C     0.43666   0.32349   0.00045   0.00000  Uiso   1.00
Yb3    Yb    0.54205   0.57745   0.01162   0.00000  Uiso   1.00
O4     O     0.48849   0.45330   0.81985   0.00000  Uiso   1.00
C5     C     0.40977   0.52371   0.01816   0.00000  Uiso   1.00
C6     C     0.51261   0.50774   0.76732   0.00000  Uiso   1.00
O7     O     0.52089   0.64422   1.00363   0.00000  Uiso   1.00
C8     C     0.58573   0.69589   0.99558   0.00000  Uiso   1.00
O9     O     0.56651   0.43814   1.00753   0.00000  Uiso   1.00
O10    O     0.59261   0.53582   0.01240   0.00000  Uiso   1.00
O11    O     0.48893   0.45653   0.19998   0.00000  Uiso   1.00
O12    O     0.62955   0.68508   0.00538   0.00000  Uiso   1.00
O13    O     0.53394   0.56576   0.20373   0.00000  Uiso   1.00
C14    C     0.61497   0.49844   1.01006   0.00000  Uiso   1.00
C15    C     0.51087   0.51105   0.25620   0.00000  Uiso   1.00
O16    O     0.50256   0.37446   0.00422   0.00000  Uiso   1.00
O17    O     0.39444   0.33647   1.00615   0.00000  Uiso   1.00
O18    O     0.45945   0.58275   0.00579   0.00000  Uiso   1.00
O19    O     0.43030   0.48432   1.01673   0.00000  Uiso   1.00
O20    O     0.97163   0.51857   0.84663   0.00000  Uiso   1.00
Yb21   Yb    0.05080   0.48420   0.04120   0.00000  Uiso   1.00
C22    C     0.14640   0.47442   0.05140   0.00000  Uiso   1.00
Yb23   Yb    0.95740   0.51575   1.03684   0.00000  Uiso   1.00
O24    O     0.04510   0.49207   0.84681   0.00000  Uiso   1.00
C25    C     0.86774   0.38939   0.00966   0.00000  Uiso   1.00
C26    C     1.00549   0.50181   0.79145   0.00000  Uiso   1.00
O27    O     0.85097   0.47793   1.01953   0.00000  Uiso   1.00
C28    C     0.86836   0.53549   1.03231   0.00000  Uiso   1.00
O29    O     0.11728   0.56447   0.91677   0.00000  Uiso   1.00
O30    O     0.06883   0.57633   0.06563   0.00000  Uiso   1.00
O31    O     0.02468   0.47044   0.22609   0.00000  Uiso   1.00
O32    O     0.93433   0.58308   0.05179   0.00000  Uiso   1.00
O33    O     0.95459   0.50062   0.22562   0.00000  Uiso   1.00
C34    C     0.11711   0.60490   0.97367   0.00000  Uiso   1.00
C35    C    -0.01267   0.48354   0.27977   0.00000  Uiso   1.00
O36    O     0.15502   0.52675   0.07757   0.00000  Uiso   1.00
O37    O     0.08352   0.42440   1.01783   0.00000  Uiso   1.00
O38    O     0.85085   0.42434   0.02401   0.00000  Uiso   1.00
O39    O     0.94086   0.42571   1.00137   0.00000  Uiso   1.00
O40    O     0.47608   0.03072   0.16039   0.00000  Uiso   1.00
Yb41   Yb    0.52135   0.96355  -0.03269   0.00000  Uiso   1.00
C42    C     0.56660   0.89899   0.96478   0.00000  Uiso   1.00
Yb43   Yb    0.46990   0.03451   0.96963   0.00000  Uiso   1.00
O44    O     0.51501   0.97044   0.15822   0.00000  Uiso   1.00
C45    C     0.60385   0.13262  -0.02980   0.00000  Uiso   1.00
C46    C     0.49541   0.00085   0.21339   0.00000  Uiso   1.00
O47    O     0.49581   0.12946  -0.03128   0.00000  Uiso   1.00
C48    C     0.43070   0.10414  -0.03147   0.00000  Uiso   1.00
O49    O     0.43383   0.85842  -0.03617   0.00000  Uiso   1.00
O50    O     0.41382   0.92979   0.96641   0.00000  Uiso   1.00
O51    O     0.51640   0.96863   0.77651   0.00000  Uiso   1.00
O52    O     0.38600   0.04065   0.97167   0.00000  Uiso   1.00
O53    O     0.47638   0.02799   0.77902   0.00000  Uiso   1.00
C54    C     0.38765   0.86392  -0.03625   0.00000  Uiso   1.00
C55    C     0.49702  -0.00141   0.72377   0.00000  Uiso   1.00
O56    O     0.50035   0.87064   0.96412   0.00000  Uiso   1.00
O57    O     0.60815   0.96232  -0.03232   0.00000  Uiso   1.00
O58    O     0.55837   0.13896   0.97110   0.00000  Uiso   1.00
O59    O     0.57661   0.06703  -0.03098   0.00000  Uiso   1.00
C60    C     0.51013   0.50998   0.38760   0.00000  Uiso   1.00
C61    C     0.49089   0.54188   0.45737   0.00000  Uiso   1.00
C62    C     0.49463   0.54254   0.58093   0.00000  Uiso   1.00
C63    C     0.51228   0.50790   0.63720   0.00000  Uiso   1.00
C64    C     0.52807   0.47345   0.56867   0.00000  Uiso   1.00
C65    C     0.52819   0.47540   0.44488   0.00000  Uiso   1.00
O66    O     0.39888   0.52230   0.34648   0.00000  Uiso   1.00
O67    O     0.47273   0.61995   0.44586   0.00000  Uiso   1.00
N68    N     0.45748   0.56492   0.40588   0.00000  Uiso   1.00
H69    H     0.54186   0.44633   0.61080   0.00000  Uiso   1.00
H70    H     0.54260   0.44995   0.39374   0.00000  Uiso   1.00
H71    H     0.47899   0.56663   0.63348   0.00000  Uiso   1.00
C72    C     0.00075   0.49567   0.66016   0.00000  Uiso   1.00
C73    C     1.01689   0.45976   0.59478   0.00000  Uiso   1.00
C74    C     1.00915   0.45357   0.47132   0.00000  Uiso   1.00
C75    C    -0.01417   0.48266   0.41059   0.00000  Uiso   1.00
C76    C    -0.03174   0.51676   0.47570   0.00000  Uiso   1.00
C77    C    -0.02448   0.52308   0.59876   0.00000  Uiso   1.00
O78    O     0.99883   0.36355   0.65045   0.00000  Uiso   1.00
O79    O     0.10619   0.46284   0.68101   0.00000  Uiso   1.00
N80    N     1.03987   0.42814   0.65154   0.00000  Uiso   1.00
H81    H    -0.04901   0.54047   0.43131   0.00000  Uiso   1.00
H82    H    -0.03791   0.55041   0.64579   0.00000  Uiso   1.00
H83    H     1.02264   0.42666   0.42273   0.00000  Uiso   1.00
C84    C     0.49367   0.00008   0.34415   0.00000  Uiso   1.00
C85    C     0.44217   0.94075   0.40501   0.00000  Uiso   1.00
C86    C     0.44640   0.94025   0.52898   0.00000  Uiso   1.00
C87    C     0.49769  -0.00115   0.59347   0.00000  Uiso   1.00
C88    C     0.54673   0.05822   0.53312   0.00000  Uiso   1.00
C89    C     0.54534   0.05863   0.40919   0.00000  Uiso   1.00
O90    O     0.34959   0.82404   0.38685   0.00000  Uiso   1.00
O91    O     0.35261   0.88928   0.25782   0.00000  Uiso   1.00
N92    N     0.38250   0.88261   0.34329   0.00000  Uiso   1.00
H93    H     0.58643   0.10398   0.58213   0.00000  Uiso   1.00
H94    H     0.58480   0.10459   0.36380   0.00000  Uiso   1.00
H95    H     0.40756   0.89476   0.57570   0.00000  Uiso   1.00
C96    C     0.33899   0.50299   0.04411   0.00000  Uiso   1.00
C97    C     0.33401   0.54884   0.10322   0.00000  Uiso   1.00
C98    C     0.26849   0.53328   0.11328   0.00000  Uiso   1.00
C99    C     0.20786   0.47646   0.05889   0.00000  Uiso   1.00
C100   C     0.21148   0.42972   1.00427   0.00000  Uiso   1.00
C101   C     0.27668   0.44243   0.99898   0.00000  Uiso   1.00
O102   O     0.39547   0.66390   0.14049   0.00000  Uiso   1.00
O103   O     0.44531   0.62206   0.20479   0.00000  Uiso   1.00
N104   N     0.39474   0.61375   0.14658   0.00000  Uiso   1.00
H105   H     0.16510   0.38529   0.96151   0.00000  Uiso   1.00
H106   H     0.27939   0.40734   0.95242   0.00000  Uiso   1.00
H107   H     0.26613   0.56870   0.15962   0.00000  Uiso   1.00
C108   C     0.81308   0.31810   0.98076   0.00000  Uiso   1.00
C109   C     0.79610   0.26761   0.05713   0.00000  Uiso   1.00
C110   C     0.72860   0.20391   0.04716   0.00000  Uiso   1.00
C111   C     0.67928   0.19100  -0.03681   0.00000  Uiso   1.00
C112   C     0.69933   0.23972   0.88210   0.00000  Uiso   1.00
C113   C     0.76565   0.30228   0.89016   0.00000  Uiso   1.00
O114   O     0.81944   0.24649   0.24544   0.00000  Uiso   1.00
O115   O     0.91199   0.32329   1.13322   0.00000  Uiso   1.00
N116   N     0.84376   0.28138   0.14985   0.00000  Uiso   1.00
H117   H     0.66181   0.23061   0.81684   0.00000  Uiso   1.00
H118   H     0.77754   0.34041   0.83157   0.00000  Uiso   1.00
H119   H     0.71293   0.16575   0.10917   0.00000  Uiso   1.00
C120   C     0.81412   0.54293   1.01912   0.00000  Uiso   1.00
C121   C     0.80036   0.57411   0.10498   0.00000  Uiso   1.00
C122   C     0.73760   0.56570   0.09455   0.00000  Uiso   1.00
C123   C     0.68883   0.52547   1.00326   0.00000  Uiso   1.00
C124   C     0.70572   0.49917   0.91524   0.00000  Uiso   1.00
C125   C     0.76784   0.50830   0.92250   0.00000  Uiso   1.00
O126   O     0.84777   0.65555   0.25972   0.00000  Uiso   1.00
O127   O     0.87427   0.58795   0.25932   0.00000  Uiso   1.00
N128   N     0.84515   0.60909   0.20731   0.00000  Uiso   1.00
H129   H     0.66853   0.46794   0.84418   0.00000  Uiso   1.00
H130   H     0.77771   0.48446   0.85568   0.00000  Uiso   1.00
H131   H     0.72340   0.58478   0.16388   0.00000  Uiso   1.00
C132   C     0.31162   0.80473  -0.03424   0.00000  Uiso   1.00
C133   C     0.26961   0.77613   0.86138   0.00000  Uiso   1.00
C134   C     0.20361   0.71105   0.86389   0.00000  Uiso   1.00
C135   C     0.17732   0.67667   0.97024   0.00000  Uiso   1.00
C136   C     0.21720   0.70746   0.07432   0.00000  Uiso   1.00
C137   C     0.28451   0.76956   0.07103   0.00000  Uiso   1.00
O138   O     0.27704   0.77834   0.65140   0.00000  Uiso   1.00
O139   O     0.32722   0.87447   0.75198   0.00000  Uiso   1.00
N140   N     0.29443   0.81106   0.75208   0.00000  Uiso   1.00
H141   H     0.19920   0.68074   0.15649   0.00000  Uiso   1.00
H142   H     0.31714   0.78822   0.14975   0.00000  Uiso   1.00
H143   H     0.17318   0.68697   0.78297   0.00000  Uiso   1.00
C144   C     0.59029   0.85920   0.95658   0.00000  Uiso   1.00
C145   C     0.64143   0.86791   1.03320   0.00000  Uiso   1.00
C146   C     0.64598   0.81663   1.03889   0.00000  Uiso   1.00
C147   C     0.60191   0.75890  -0.03231   0.00000  Uiso   1.00
C148   C     0.55739   0.75465   0.88420   0.00000  Uiso   1.00
C149   C     0.55131   0.80371   0.87939   0.00000  Uiso   1.00
O150   O     0.70053   0.91887   0.21661   0.00000  Uiso   1.00
O151   O     0.71755   0.98446   1.07168   0.00000  Uiso   1.00
N152   N     0.68482   0.92509   1.11132   0.00000  Uiso   1.00
H153   H     0.52245   0.71023   0.82880   0.00000  Uiso   1.00
H154   H     0.51231   0.79606   0.81970   0.00000  Uiso   1.00
H155   H     0.68046   0.81991   1.10339   0.00000  Uiso   1.00
C156   C     0.41520   0.25685  -0.01800   0.00000  Uiso   1.00
C157   C     0.37542   0.20483   0.06458   0.00000  Uiso   1.00
C158   C     0.37395   0.14992   0.05243   0.00000  Uiso   1.00
C159   C     0.41229   0.14753  -0.03786   0.00000  Uiso   1.00
C160   C     0.44650   0.19660   0.87686   0.00000  Uiso   1.00
C161   C     0.44753   0.25025   0.88619   0.00000  Uiso   1.00
O162   O     0.28532   0.15364   0.21037   0.00000  Uiso   1.00
O163   O     0.36362   0.26488   0.21139   0.00000  Uiso   1.00
N164   N     0.34025   0.20816   0.16410   0.00000  Uiso   1.00
H165   H     0.47636   0.19553   0.80671   0.00000  Uiso   1.00
H166   H     0.47794   0.28932   0.82205   0.00000  Uiso   1.00
H167   H     0.34835   0.11221   0.11927   0.00000  Uiso   1.00
loop_
_geom_bond_atom_site_label_1
_geom_bond_atom_site_label_2
_geom_bond_distance
_geom_bond_site_symmetry_2
_ccdc_geom_bond_type
O0     C6      1.298   .     A
O0     Yb3     2.146   1_556 S
Yb1    O4      2.165   .     S
Yb1    O9      2.143   .     S
Yb1    O17     2.168   .     S
Yb1    O19     2.142   .     S
Yb1    Yb3     2.824   1_556 S
Yb1    O10     2.201   1_556 S
Yb1    O11     2.157   1_556 S
Yb1    O16     2.133   1_556 S
C2     O16     1.280   .     A
C2     C156    1.472   .     S
C2     O17     1.279   1_554 A
Yb3    O10     2.109   .     S
Yb3    O12     2.196   .     S
Yb3    O13     2.188   .     S
Yb3    O18     2.119   .     S
Yb3    O0      2.146   1_554 S
Yb3    Yb1     2.824   1_554 S
Yb3    O7      2.119   1_554 S
Yb3    O19     2.219   1_554 S
O4     C6      1.300   .     A
C5     O18     1.221   .     D
C5     C96     1.479   .     S
C5     O19     1.405   1_554 S
C6     C63     1.470   .     S
O7     C8      1.273   .     A
O7     Yb3     2.119   1_556 S
C8     O12     1.281   1_556 A
C8     C147    1.470   1_556 S
O9     C14     1.226   .     D
O10    Yb1     2.201   1_554 S
O10    C14     1.393   1_554 S
O11    C15     1.305   .     A
O11    Yb1     2.157   1_554 S
O12    C8      1.281   1_554 A
O13    C15     1.312   .     A
C14    C123    1.466   .     S
C14    O10     1.393   1_556 S
C15    C60     1.485   .     S
O16    Yb1     2.133   1_554 S
O17    C2      1.279   1_556 A
O19    Yb3     2.219   1_556 S
O19    C5      1.405   1_556 S
O20    C26     1.306   .     A
O20    Yb23    2.167   .     S
Yb21   O30     2.163   .     S
Yb21   O31     2.147   .     S
Yb21   O36     2.076   .     S
Yb21   Yb23    2.889   1_454 S
Yb21   O24     2.225   1_554 S
Yb21   O29     2.184   1_554 S
Yb21   O37     2.175   1_554 S
Yb21   O39     2.131   1_454 S
C22    O36     1.270   .     A
C22    C99     1.477   .     S
C22    O37     1.283   1_554 A
Yb23   O27     2.130   .     S
Yb23   O39     2.145   .     S
Yb23   Yb21    2.889   1_656 S
Yb23   O30     2.133   1_656 S
Yb23   O32     2.168   1_556 S
Yb23   O33     2.172   1_556 S
Yb23   O38     2.139   1_556 S
O24    Yb21    2.225   1_556 S
O24    C26     1.320   1_455 A
C25    O38     1.227   .     D
C25    O39     1.397   1_554 S
C25    C108    1.471   1_554 S
C26    O24     1.320   1_655 A
C26    C72     1.485   1_655 S
O27    C28     1.279   .     A
C28    C120    1.472   .     S
C28    O32     1.280   1_556 A
O29    C34     1.224   .     D
O29    Yb21    2.184   1_556 S
O30    Yb23    2.133   1_454 S
O30    C34     1.385   1_554 S
O31    C35     1.303   .     A
O32    Yb23    2.168   1_554 S
O32    C28     1.280   1_554 A
O33    Yb23    2.172   1_554 S
O33    C35     1.306   1_655 A
C34    C135    1.472   .     S
C34    O30     1.385   1_556 S
C35    C75     1.478   .     S
C35    O33     1.306   1_455 A
O37    Yb21    2.175   1_556 S
O37    C22     1.283   1_556 A
O38    Yb23    2.139   1_554 S
O39    Yb21    2.131   1_656 S
O39    C25     1.397   1_556 S
O40    C46     1.304   .     A
O40    Yb43    2.171   1_554 S
Yb41   O44     2.170   .     S
Yb41   O49     2.150   .     S
Yb41   O57     2.149   .     S
Yb41   Yb43    2.832   1_564 S
Yb41   O50     2.182   1_554 S
Yb41   O51     2.172   1_554 S
Yb41   O56     2.136   1_554 S
Yb41   O59     2.114   1_565 S
C42    O56     1.285   .     A
C42    C144    1.481   .     S
C42    O57     1.274   1_556 A
Yb43   O52     2.163   .     S
Yb43   O53     2.166   .     S
Yb43   O58     2.144   .     S
Yb43   O40     2.171   1_556 S
Yb43   Yb41    2.832   1_546 S
Yb43   O47     2.134   1_556 S
Yb43   O50     2.139   1_545 S
Yb43   O59     2.175   1_556 S
O44    C46     1.305   1_565 A
C45    O59     1.387   .     S
C45    C111    1.468   .     S
C45    O58     1.228   1_554 D
C46    C84     1.477   .     S
C46    O44     1.305   1_545 A
O47    C48     1.280   .     A
O47    Yb43    2.134   1_554 S
C48    C159    1.468   .     S
C48    O52     1.279   1_554 A
O49    C54     1.229   .     D
O50    Yb41    2.182   1_556 S
O50    Yb43    2.139   1_565 S
O50    C54     1.402   1_556 S
O51    Yb41    2.172   1_556 S
O51    C55     1.305   1_565 A
O52    C48     1.279   1_556 A
O53    C55     1.303   .     A
C54    C132    1.479   .     S
C54    O50     1.402   1_554 S
C55    C87     1.472   .     S
C55    O51     1.305   1_545 A
O56    Yb41    2.136   1_556 S
O57    C42     1.274   1_554 A
O58    C45     1.228   1_556 D
O59    Yb41    2.114   1_545 S
O59    Yb43    2.175   1_554 S
C60    C61     1.412   .     A
C60    C65     1.409   .     A
C61    C62     1.399   .     A
C61    N68     1.427   .     S
C62    C63     1.397   .     A
C62    H71     1.085   .     S
C63    C64     1.399   .     A
C64    C65     1.400   .     A
C64    H69     1.083   .     S
C65    H70     1.084   .     S
O66    N68     1.303   .     A
O67    N68     1.302   .     A
C72    C77     1.408   .     A
C72    C73     1.418   1_455 A
C72    C26     1.485   1_455 S
C73    C74     1.401   .     A
C73    N80     1.431   .     S
C73    C72     1.418   1_655 A
C74    H83     1.085   .     S
C74    C75     1.404   1_655 A
C75    C76     1.402   .     A
C75    C74     1.404   1_455 A
C76    C77     1.395   .     A
C76    H81     1.083   .     S
C77    H82     1.084   .     S
O78    N80     1.301   .     A
O79    N80     1.301   1_455 A
N80    O79     1.301   1_655 A
C84    C89     1.405   .     A
C84    C85     1.417   1_545 A
C85    C86     1.406   .     A
C85    N92     1.437   .     S
C85    C84     1.417   1_565 A
C86    H95     1.084   .     S
C86    C87     1.401   1_565 A
C87    C88     1.404   .     A
C87    C86     1.401   1_545 A
C88    C89     1.401   .     A
C88    H93     1.084   .     S
C89    H94     1.086   .     S
O90    N92     1.300   .     A
O91    N92     1.301   .     A
C96    C97     1.427   .     A
C96    C101    1.410   1_554 A
C97    C98     1.387   .     A
C97    N104    1.443   .     S
C98    C99     1.396   .     A
C98    H107    1.084   .     S
C99    C100    1.406   1_554 A
C100   C101    1.411   .     A
C100   H105    1.083   .     S
C100   C99     1.406   1_556 A
C101   H106    1.083   .     S
C101   C96     1.410   1_556 A
O102   N104    1.303   .     A
O103   N104    1.299   .     A
C108   C113    1.402   .     A
C108   C109    1.418   1_556 A
C108   C25     1.471   1_556 S
C109   C110    1.414   .     A
C109   N116    1.438   .     S
C109   C108    1.418   1_554 A
C110   C111    1.403   .     A
C110   H119    1.084   .     S
C111   C112    1.399   1_554 A
C112   C113    1.388   .     A
C112   H117    1.084   .     S
C112   C111    1.399   1_556 A
C113   H118    1.085   .     S
O114   N116    1.302   .     A
O115   N116    1.303   1_556 A
N116   O115    1.303   1_554 A
C120   C125    1.402   .     A
C120   C121    1.420   1_556 A
C121   C122    1.415   .     A
C121   N128    1.439   .     S
C121   C120    1.420   1_554 A
C122   H131    1.084   .     S
C122   C123    1.402   1_554 A
C123   C124    1.395   .     A
C123   C122    1.402   1_556 A
C124   C125    1.386   .     A
C124   H129    1.084   .     S
C125   H130    1.085   .     S
O126   N128    1.300   .     A
O127   N128    1.302   .     A
C132   C137    1.400   .     A
C132   C133    1.418   1_554 A
C133   C134    1.414   .     A
C133   N140    1.435   .     S
C133   C132    1.418   1_556 A
C134   C135    1.402   .     A
C134   H143    1.084   .     S
C135   C136    1.400   1_556 A
C136   C137    1.393   .     A
C136   H141    1.084   .     S
C136   C135    1.400   1_554 A
C137   H142    1.080   .     S
O138   N140    1.304   .     A
O139   N140    1.301   .     A
C144   C145    1.424   .     A
C144   C149    1.400   .     A
C145   C146    1.418   .     A
C145   N152    1.437   .     S
C146   H155    1.084   .     S
C146   C147    1.402   1_556 A
C147   C146    1.402   1_554 A
C147   C148    1.400   1_554 A
C147   C8      1.470   1_554 S
C148   C149    1.385   .     A
C148   H153    1.085   .     S
C148   C147    1.400   1_556 A
C149   H154    1.084   .     S
O150   N152    1.301   1_554 A
O151   N152    1.301   .     A
N152   O150    1.301   1_556 A
C156   C157    1.422   .     A
C156   C161    1.403   1_554 A
C157   C158    1.416   .     A
C157   N164    1.442   .     S
C158   C159    1.404   .     A
C158   H167    1.083   .     S
C159   C160    1.396   1_554 A
C160   C161    1.388   .     A
C160   H165    1.083   .     S
C160   C159    1.396   1_556 A
C161   H166    1.085   .     S
C161   C156    1.403   1_556 A
O162   N164    1.300   .     A
O163   N164    1.300   .     A
