data_kag+N205+E8
_audit_creation_date              2025-01-21
_audit_creation_method            'Materials Studio'
_symmetry_space_group_name_H-M    'P1'
_symmetry_Int_Tables_number       1
_symmetry_cell_setting            triclinic
loop_
_symmetry_equiv_pos_as_xyz
  x,y,z
_cell_length_a                    30.5388
_cell_length_b                    30.2203
_cell_length_c                    12.5236
_cell_angle_alpha                 86.7017
_cell_angle_beta                  100.8353
_cell_angle_gamma                 120.3579
loop_
_atom_site_label
_atom_site_type_symbol
_atom_site_fract_x
_atom_site_fract_y
_atom_site_fract_z
_atom_site_U_iso_or_equiv
_atom_site_adp_type
_atom_site_occupancy
Y0     Y     0.51125   0.45402   0.00315   0.00000  Uiso   1.00
Y1     Y     0.39363   0.47046   0.99949   0.00000  Uiso   1.00
C2     C     0.46111   0.56702   0.07513   0.00000  Uiso   1.00
C3     C     0.45313   0.44753   0.19070   0.00000  Uiso   1.00
C4     C     0.61527   0.49838   1.04729   0.00000  Uiso   1.00
C5     C     0.47234   0.35255   0.96429   0.00000  Uiso   1.00
C6     C     0.43500   0.45439   0.80601   0.00000  Uiso   1.00
C7     C     0.30110   0.46604  -0.03626   0.00000  Uiso   1.00
O8     O     0.43267   0.53159   1.13097   0.00000  Uiso   1.00
O9     O     0.45823   0.55249  -0.01932   0.00000  Uiso   1.00
O10    O     0.49347   0.47658   0.15071   0.00000  Uiso   1.00
O11    O     0.40941   0.42312   0.12820   0.00000  Uiso   1.00
O12    O     0.59059   0.50349   0.95951   0.00000  Uiso   1.00
O13    O     0.58643   0.47309   0.11401   0.00000  Uiso   1.00
O14    O     0.46308   0.36992   0.04122   0.00000  Uiso   1.00
O15    O     0.49877   0.38714   0.90494   0.00000  Uiso   1.00
O16    O     0.39591   0.43295   0.85234   0.00000  Uiso   1.00
O17    O     0.47942   0.48429   0.86059   0.00000  Uiso   1.00
O18    O     0.31764   0.45018   0.04826   0.00000  Uiso   1.00
O19    O     0.32994   0.47939   0.89397   0.00000  Uiso   1.00
Y20    Y     0.07093   0.62132   0.03808   0.00000  Uiso   1.00
Y21    Y     0.94377   0.49337   1.01250   0.00000  Uiso   1.00
C22    C     0.87863   0.52887   1.01307   0.00000  Uiso   1.00
C23    C     0.00545   0.56576   0.21213   0.00000  Uiso   1.00
C24    C     0.14817   0.72014   1.07034   0.00000  Uiso   1.00
C25    C     0.11614   0.56337   0.03732   0.00000  Uiso   1.00
C26    C     0.00556   0.55675   0.83642   0.00000  Uiso   1.00
C27    C     0.88385   0.39166  -0.03822   0.00000  Uiso   1.00
O28    O     0.90510   0.53851   0.93951   0.00000  Uiso   1.00
O29    O     0.88805   0.50342   0.08727   0.00000  Uiso   1.00
O30    O     0.01663   0.60413   0.15228   0.00000  Uiso   1.00
O31    O     0.99634   0.52314   0.17392   0.00000  Uiso   1.00
O32    O     0.11625   0.70250   0.98246   0.00000  Uiso   1.00
O33    O     0.13641   0.68826   0.14377   0.00000  Uiso   1.00
O34    O     0.09374   0.56338   0.11245   0.00000  Uiso   1.00
O35    O     0.11410   0.59230   0.96275   0.00000  Uiso   1.00
O36    O     0.99920   0.51961   0.89722   0.00000  Uiso   1.00
O37    O     0.01681   0.59942   0.87804   0.00000  Uiso   1.00
O38    O     0.90896   0.40955   0.05630   0.00000  Uiso   1.00
O39    O     0.89232   0.42623   0.89392   0.00000  Uiso   1.00
Y40    Y     0.54281   0.05547  -0.06078   0.00000  Uiso   1.00
Y41    Y     0.53171   0.92193   0.97926   0.00000  Uiso   1.00
C42    C     0.42920   0.87417   0.97639   0.00000  Uiso   1.00
C43    C     0.55593   0.00121   0.15578   0.00000  Uiso   1.00
C44    C     0.49887   0.11465   0.90591   0.00000  Uiso   1.00
C45    C     0.64530   0.12020  -0.05301   0.00000  Uiso   1.00
C46    C     0.52810  -0.02241   0.76822   0.00000  Uiso   1.00
C47    C     0.56007   0.85210   0.03754   0.00000  Uiso   1.00
O48    O     0.45889   0.92180   0.99580   0.00000  Uiso   1.00
O49    O     0.45179   0.85164  -0.04961   0.00000  Uiso   1.00
O50    O     0.53130   0.02196   0.10392   0.00000  Uiso   1.00
O51    O     0.57889   0.98557   0.10675   0.00000  Uiso   1.00
O52    O     0.51044   0.09824   0.83240   0.00000  Uiso   1.00
O53    O     0.50679   0.09763  -0.00242   0.00000  Uiso   1.00
O54    O     0.62757   0.08711   0.01553   0.00000  Uiso   1.00
O55    O     0.61061   0.11678   0.87108   0.00000  Uiso   1.00
O56    O     0.55224   0.95670   0.81999   0.00000  Uiso   1.00
O57    O     0.50193  -0.01096   0.81681   0.00000  Uiso   1.00
O58    O     0.54977   0.87387   0.10343   0.00000  Uiso   1.00
O59    O     0.56123   0.87056   0.94447   0.00000  Uiso   1.00
C60    C     0.41827   0.43260   0.46592   0.00000  Uiso   1.00
C61    C     0.46714   0.45776   0.53272   0.00000  Uiso   1.00
N62    N     0.50997   0.47616   0.48795   0.00000  Uiso   1.00
C63    C     0.50612   0.47183   0.37855   0.00000  Uiso   1.00
C64    C     0.45737   0.44784   0.31043   0.00000  Uiso   1.00
N65    N     0.41421   0.42873   0.35601   0.00000  Uiso   1.00
N66    N     0.37548   0.41413   0.51139   0.00000  Uiso   1.00
C67    C     0.37957   0.41981   0.62062   0.00000  Uiso   1.00
C68    C     0.42861   0.44599   0.68764   0.00000  Uiso   1.00
N69    N     0.47143   0.46376   0.64180   0.00000  Uiso   1.00
H70    H     0.54115   0.48728   0.34526   0.00000  Uiso   1.00
H71    H     0.34476   0.40447   0.65427   0.00000  Uiso   1.00
C72    C     1.00120   0.58088   0.54198   0.00000  Uiso   1.00
C73    C     0.00598   0.54080   0.50464   0.00000  Uiso   1.00
N74    N     0.01027   0.50704   0.57572   0.00000  Uiso   1.00
C75    C     0.00949   0.51117   0.68252   0.00000  Uiso   1.00
C76    C     0.00502   0.55129   0.72056   0.00000  Uiso   1.00
N77    N     1.00073   0.58523   0.64911   0.00000  Uiso   1.00
N78    N     0.99701   0.61471   0.47044   0.00000  Uiso   1.00
C79    C     0.99831   0.61076   0.36363   0.00000  Uiso   1.00
C80    C     1.00331   0.57082   0.32638   0.00000  Uiso   1.00
N81    N     0.00727   0.53684   0.39826   0.00000  Uiso   1.00
H82    H     0.01406   0.48427   0.73762   0.00000  Uiso   1.00
H83    H     0.99441   0.63804   0.30842   0.00000  Uiso   1.00
C84    C     0.52951   0.00198   0.43303   0.00000  Uiso   1.00
C85    C     0.55782  -0.01889   0.49320   0.00000  Uiso   1.00
N86    N     0.58553  -0.03209   0.44292   0.00000  Uiso   1.00
C87    C     0.58595  -0.02581   0.33473   0.00000  Uiso   1.00
C88    C     0.55747  -0.00512   0.27381   0.00000  Uiso   1.00
N89    N     0.52986   1.00823   0.32497   0.00000  Uiso   1.00
N90    N     0.50140   1.01485   0.48292   0.00000  Uiso   1.00
C91    C     0.50083   1.00808   0.59108   0.00000  Uiso   1.00
C92    C     0.52910  -0.01306   0.65178   0.00000  Uiso   1.00
N93    N     0.55704  -0.02599   0.60098   0.00000  Uiso   1.00
H94    H     0.60854  -0.03664   0.29721   0.00000  Uiso   1.00
H95    H     0.47814   1.01859   0.62896   0.00000  Uiso   1.00
C96    C     0.20186   0.48870   0.03818   0.00000  Uiso   1.00
C97    C     0.19086   0.51201  -0.05494   0.00000  Uiso   1.00
N98    N     0.21149   0.51456   0.85651   0.00000  Uiso   1.00
C99    C     0.24341   0.49558  -0.14268   0.00000  Uiso   1.00
C100   C     0.25661   0.47422  -0.04778   0.00000  Uiso   1.00
N101   N     0.23498   0.47083   0.04035   0.00000  Uiso   1.00
N102   N     0.18131   0.48669   0.12703   0.00000  Uiso   1.00
C103   C     0.15218   0.50897   0.12808   0.00000  Uiso   1.00
C104   C     0.14305   0.53439   0.03639   0.00000  Uiso   1.00
N105   N     0.16222   0.53464  -0.05342   0.00000  Uiso   1.00
H106   H     0.26017   0.49955   0.78632   0.00000  Uiso   1.00
H107   H     0.13646   0.50700   0.20000   0.00000  Uiso   1.00
C108   C     0.79213   0.25345  -0.00793   0.00000  Uiso   1.00
C109   C     0.75775   0.24137  -0.10784   0.00000  Uiso   1.00
N110   N     0.76820   0.27672  -0.18530   0.00000  Uiso   1.00
C111   C     0.81121   0.32382  -0.16738   0.00000  Uiso   1.00
C112   C     0.84445   0.33732  -0.06571   0.00000  Uiso   1.00
N113   N     0.83476   0.30130   0.01126   0.00000  Uiso   1.00
N114   N     0.78085   0.21805   0.06988   0.00000  Uiso   1.00
C115   C     0.73529   0.17239   0.05441   0.00000  Uiso   1.00
C116   C     0.69923   0.16202  -0.04264   0.00000  Uiso   1.00
N117   N     0.71191   0.19662  -0.12198   0.00000  Uiso   1.00
H118   H     0.81738   0.35129  -0.23002   0.00000  Uiso   1.00
H119   H     0.72637   0.14573   0.11916   0.00000  Uiso   1.00
C120   C     0.76747   0.52702   1.09092   0.00000  Uiso   1.00
C121   C     0.74570   0.53993   0.99419   0.00000  Uiso   1.00
N122   N     0.77220   0.55650   0.91037   0.00000  Uiso   1.00
C123   C     0.81783   0.55759   0.91700   0.00000  Uiso   1.00
C124   C     0.83741   0.54063   1.01069   0.00000  Uiso   1.00
N125   N     0.81203   0.52674   1.09613   0.00000  Uiso   1.00
N126   N     0.74120   0.51000   1.17439   0.00000  Uiso   1.00
C127   C     0.69364   0.50445   1.16498   0.00000  Uiso   1.00
C128   C     0.67058   0.51517   1.06666   0.00000  Uiso   1.00
N129   N     0.69769   0.53366   0.98392   0.00000  Uiso   1.00
H130   H     0.83721   0.56925   0.84780   0.00000  Uiso   1.00
H131   H     0.67298   0.48905   1.23173   0.00000  Uiso   1.00
C132   C     0.30017   0.83261   1.04325   0.00000  Uiso   1.00
C133   C     0.28429   0.78062   1.06031   0.00000  Uiso   1.00
N134   N     0.31632   0.76306   1.05484   0.00000  Uiso   1.00
C135   C     0.36380   0.79548   1.03266   0.00000  Uiso   1.00
C136   C     0.37743   0.84498   1.00256   0.00000  Uiso   1.00
N137   N     0.34754   0.86472   1.01564   0.00000  Uiso   1.00
N138   N     0.26579   0.84853   1.04534   0.00000  Uiso   1.00
C139   C     0.21654   0.81448   1.06124   0.00000  Uiso   1.00
C140   C     0.20118   0.76251   1.07445   0.00000  Uiso   1.00
N141   N     0.23567   0.74759   1.07400   0.00000  Uiso   1.00
H142   H     0.39200   0.78423   1.03831   0.00000  Uiso   1.00
H143   H     0.18978   0.82783   1.06149   0.00000  Uiso   1.00
C144   C     0.52409   0.72336   0.13581   0.00000  Uiso   1.00
C145   C     0.54298   0.70615   0.06469   0.00000  Uiso   1.00
N146   N     0.57418   0.73953  -0.00187   0.00000  Uiso   1.00
C147   C     0.58474   0.78894  -0.00442   0.00000  Uiso   1.00
C148   C     0.56220   0.80518   0.06075   0.00000  Uiso   1.00
N149   N     0.53291   0.77209   0.13082   0.00000  Uiso   1.00
N150   N     0.48932   0.68686   0.19937   0.00000  Uiso   1.00
C151   C     0.47471   0.63469   0.19578   0.00000  Uiso   1.00
C152   C     0.49108   0.62040   0.11349   0.00000  Uiso   1.00
N153   N     0.52471   0.65537   0.05269   0.00000  Uiso   1.00
H154   H     0.60823   0.81444  -0.06094   0.00000  Uiso   1.00
H155   H     0.47057   0.66536   0.22356   0.00000  Uiso   1.00
C156   C     0.47850   0.24280   0.87314   0.00000  Uiso   1.00
C157   C     0.45558   0.20613   0.94961   0.00000  Uiso   1.00
N158   N     0.43165   0.21539   1.01961   0.00000  Uiso   1.00
C159   C     0.43265   0.26094   1.02093   0.00000  Uiso   1.00
C160   C     0.45951   0.29920   0.95030   0.00000  Uiso   1.00
N161   N     0.48085   0.28865   0.87679   0.00000  Uiso   1.00
N162   N     0.50265   0.23409   0.80349   0.00000  Uiso   1.00
C163   C     0.50532   0.19056   0.80728   0.00000  Uiso   1.00
C164   C     0.48521   0.15504   0.88768   0.00000  Uiso   1.00
N165   N     0.45997   0.16329   0.95646   0.00000  Uiso   1.00
H166   H     0.41469   0.26804   1.07950   0.00000  Uiso   1.00
H167   H     0.52638   0.18573   0.75269   0.00000  Uiso   1.00
loop_
_geom_bond_atom_site_label_1
_geom_bond_atom_site_label_2
_geom_bond_distance
_geom_bond_site_symmetry_2
_ccdc_geom_bond_type
Y0     O10     2.252   .     S
Y0     O13     2.255   .     S
Y0     O14     2.279   .     S
Y0     O12     2.269   1_554 S
Y0     O15     2.253   1_554 S
Y0     O17     2.242   1_554 S
Y1     O8      2.221   .     S
Y1     O16     2.248   .     S
Y1     O19     2.264   .     S
Y1     O9      2.293   1_556 S
Y1     O11     2.240   1_556 S
Y1     O18     2.277   1_556 S
C2     O9      1.257   .     A
C2     C152    1.450   .     S
C2     O8      1.262   1_554 A
C3     O10     1.276   .     A
C3     O11     1.272   .     A
C3     C64     1.481   .     S
C4     O12     1.260   .     A
C4     C128    1.471   .     S
C4     O13     1.257   1_556 A
C5     O15     1.257   .     A
C5     C160    1.467   .     S
C5     O14     1.263   1_556 A
C6     O16     1.271   .     A
C6     O17     1.268   .     A
C6     C68     1.478   .     S
C7     O18     1.261   .     A
C7     C100    1.480   .     S
C7     O19     1.262   1_554 A
O8     C2      1.262   1_556 A
O9     Y1      2.293   1_554 S
O11    Y1      2.240   1_554 S
O12    Y0      2.269   1_556 S
O13    C4      1.257   1_554 A
O14    C5      1.263   1_554 A
O15    Y0      2.253   1_556 S
O17    Y0      2.242   1_556 S
O18    Y1      2.277   1_554 S
O19    C7      1.262   1_556 A
Y20    O30     2.236   .     S
Y20    O33     2.251   .     S
Y20    O34     2.285   .     S
Y20    O32     2.270   1_554 S
Y20    O35     2.265   1_554 S
Y20    O37     2.233   1_554 S
Y21    O28     2.274   .     S
Y21    O36     2.238   .     S
Y21    O39     2.245   .     S
Y21    O29     2.240   1_556 S
Y21    O31     2.237   1_556 S
Y21    O38     2.277   1_556 S
C22    O28     1.264   .     A
C22    C124    1.466   .     S
C22    O29     1.256   1_556 A
C23    O30     1.273   .     A
C23    O31     1.274   1_455 A
C23    C80     1.465   1_455 S
C24    O32     1.259   .     A
C24    C140    1.464   .     S
C24    O33     1.255   1_556 A
C25    O34     1.263   .     A
C25    C104    1.475   .     S
C25    O35     1.257   1_554 A
C26    O37     1.271   .     A
C26    C76     1.466   .     S
C26    O36     1.270   1_455 A
C27    O38     1.263   .     A
C27    C112    1.475   .     S
C27    O39     1.260   1_554 A
O29    Y21     2.240   1_554 S
O29    C22     1.256   1_554 A
O31    Y21     2.237   1_554 S
O31    C23     1.274   1_655 A
O32    Y20     2.270   1_556 S
O33    C24     1.255   1_554 A
O35    Y20     2.265   1_556 S
O35    C25     1.257   1_556 A
O36    C26     1.270   1_655 A
O37    Y20     2.233   1_556 S
O38    Y21     2.277   1_554 S
O39    C27     1.260   1_556 A
Y40    O50     2.253   .     S
Y40    O53     2.279   .     S
Y40    O54     2.281   .     S
Y40    O52     2.244   1_554 S
Y40    O55     2.248   1_554 S
Y40    O57     2.245   1_554 S
Y41    O48     2.270   .     S
Y41    O56     2.245   .     S
Y41    O59     2.248   .     S
Y41    O49     2.262   1_556 S
Y41    O51     2.239   1_556 S
Y41    O58     2.249   1_556 S
C42    O48     1.261   .     A
C42    C136    1.462   .     S
C42    O49     1.277   1_556 A
C43    O50     1.275   .     A
C43    C88     1.475   .     S
C43    O51     1.274   1_545 A
C44    O52     1.253   .     A
C44    C164    1.470   .     S
C44    O53     1.263   1_556 A
C45    O54     1.248   .     A
C45    C116    1.470   .     S
C45    O55     1.249   1_554 A
C46    O57     1.271   .     A
C46    C92     1.472   .     S
C46    O56     1.267   1_545 A
C47    O58     1.258   .     A
C47    C148    1.462   .     S
C47    O59     1.262   1_554 A
O49    Y41     2.262   1_554 S
O49    C42     1.277   1_554 A
O51    Y41     2.239   1_554 S
O51    C43     1.274   1_565 A
O52    Y40     2.244   1_556 S
O53    C44     1.263   1_554 A
O55    Y40     2.248   1_556 S
O55    C45     1.249   1_556 A
O56    C46     1.267   1_565 A
O57    Y40     2.245   1_556 S
O58    Y41     2.249   1_554 S
O59    C47     1.262   1_556 A
C60    C61     1.401   .     A
C60    N65     1.365   .     A
C60    N66     1.360   .     A
C61    N62     1.356   .     A
C61    N69     1.361   .     A
N62    C63     1.361   .     A
C63    C64     1.405   .     A
C63    H70     1.085   .     S
C64    N65     1.368   .     A
N66    C67     1.363   .     A
C67    C68     1.407   .     A
C67    H71     1.082   .     S
C68    N69     1.366   .     A
C72    N77     1.359   .     A
C72    N78     1.359   .     A
C72    C73     1.406   1_655 A
C73    N74     1.356   .     A
C73    N81     1.354   .     A
C73    C72     1.406   1_455 A
N74    C75     1.356   .     A
C75    C76     1.405   .     A
C75    H82     1.082   .     S
C76    N77     1.362   1_455 A
N77    C76     1.362   1_655 A
N78    C79     1.359   .     A
C79    C80     1.406   .     A
C79    H83     1.084   .     S
C80    N81     1.363   1_655 A
C80    C23     1.465   1_655 S
N81    C80     1.363   1_455 A
C84    C85     1.401   .     A
C84    N89     1.357   1_545 A
C84    N90     1.359   1_545 A
C85    N86     1.357   .     A
C85    N93     1.357   .     A
N86    C87     1.359   .     A
C87    C88     1.405   .     A
C87    H94     1.083   .     S
C88    N89     1.364   1_545 A
N89    C84     1.357   1_565 A
N89    C88     1.364   1_565 A
N90    C91     1.360   .     A
N90    C84     1.359   1_565 A
C91    H95     1.081   .     S
C91    C92     1.409   1_565 A
C92    N93     1.362   .     A
C92    C91     1.409   1_545 A
C96    C97     1.402   .     A
C96    N101    1.362   .     A
C96    N102    1.361   .     A
C97    N105    1.359   .     A
C97    N98     1.355   1_554 A
N98    C97     1.355   1_556 A
N98    C99     1.356   1_556 A
C99    C100    1.409   .     A
C99    N98     1.356   1_554 A
C99    H106    1.079   1_554 S
C100   N101    1.363   .     A
N102   C103    1.362   .     A
C103   C104    1.408   .     A
C103   H107    1.083   .     S
C104   N105    1.360   .     A
H106   C99     1.079   1_556 S
C108   C109    1.404   .     A
C108   N113    1.365   .     A
C108   N114    1.359   .     A
C109   N110    1.355   .     A
C109   N117    1.357   .     A
N110   C111    1.356   .     A
C111   C112    1.405   .     A
C111   H118    1.078   .     S
C112   N113    1.365   .     A
N114   C115    1.366   .     A
C115   C116    1.407   .     A
C115   H119    1.080   .     S
C116   N117    1.359   .     A
C120   C121    1.402   .     A
C120   N125    1.354   .     A
C120   N126    1.356   .     A
C121   N122    1.363   .     A
C121   N129    1.361   .     A
N122   C123    1.364   .     A
C123   C124    1.405   .     A
C123   H130    1.083   .     S
C124   N125    1.361   .     A
N126   C127    1.358   .     A
C127   C128    1.406   .     A
C127   H131    1.082   .     S
C128   N129    1.364   .     A
C132   C133    1.407   .     A
C132   N137    1.373   .     A
C132   N138    1.363   .     A
C133   N134    1.340   .     A
C133   N141    1.345   .     A
N134   C135    1.350   .     A
C135   C136    1.385   .     A
C135   H142    1.064   .     S
C136   N137    1.354   .     A
N138   C139    1.373   .     A
C139   C140    1.403   .     A
C139   H143    1.079   .     S
C140   N141    1.340   .     A
C144   C145    1.395   .     A
C144   N149    1.356   .     A
C144   N150    1.418   .     A
C145   N146    1.360   .     A
C145   N153    1.349   .     A
N146   C147    1.359   .     A
C147   C148    1.407   .     A
C147   H154    1.086   .     S
C148   N149    1.364   .     A
N150   C151    1.406   .     A
C151   C152    1.401   .     A
C151   H155    1.081   .     S
C152   N153    1.362   .     A
C156   C157    1.408   .     A
C156   N161    1.354   .     A
C156   N162    1.356   .     A
C157   N158    1.363   .     A
C157   N165    1.364   .     A
N158   C159    1.362   .     A
C159   C160    1.410   .     A
C159   H166    1.083   .     S
C160   N161    1.358   .     A
N162   C163    1.356   .     A
C163   C164    1.409   .     A
C163   H167    1.083   .     S
C164   N165    1.366   .     A
