data_kag+N248+E15
_audit_creation_date              2025-01-21
_audit_creation_method            'Materials Studio'
_symmetry_space_group_name_H-M    'P1'
_symmetry_Int_Tables_number       1
_symmetry_cell_setting            triclinic
loop_
_symmetry_equiv_pos_as_xyz
  x,y,z
_cell_length_a                    22.8033
_cell_length_b                    24.2616
_cell_length_c                    10.5479
_cell_angle_alpha                 96.4950
_cell_angle_beta                  85.8033
_cell_angle_gamma                 128.1304
loop_
_atom_site_label
_atom_site_type_symbol
_atom_site_fract_x
_atom_site_fract_y
_atom_site_fract_z
_atom_site_U_iso_or_equiv
_atom_site_adp_type
_atom_site_occupancy
O0     O     0.49944   0.55473   0.88551   0.00000  Uiso   1.00
Yb1    Yb    0.46569   0.43585   1.05856   0.00000  Uiso   1.00
C2     C     0.42334   0.31077   0.03854   0.00000  Uiso   1.00
Yb3    Yb    0.51279   0.57545   0.09452   0.00000  Uiso   1.00
O4     O     0.46575   0.44312   0.85600   0.00000  Uiso   1.00
C5     C     0.37417   0.51024   0.09135   0.00000  Uiso   1.00
C6     C     0.47853   0.49777   0.81353   0.00000  Uiso   1.00
O7     O     0.53533   0.62304   0.92037   0.00000  Uiso   1.00
C8     C     0.57825   0.68464   0.98224   0.00000  Uiso   1.00
O9     O     0.55813   0.43666   1.04626   0.00000  Uiso   1.00
O10    O     0.58039   0.53997   0.05164   0.00000  Uiso   1.00
O11    O     0.46977   0.44620   0.26670   0.00000  Uiso   1.00
O12    O     0.59384   0.68559   0.09703   0.00000  Uiso   1.00
O13    O     0.50792   0.55834   0.28983   0.00000  Uiso   1.00
C14    C     0.60627   0.49949   1.03709   0.00000  Uiso   1.00
C15    C     0.48500   0.50112   0.33606   0.00000  Uiso   1.00
O16    O     0.49231   0.36458   0.03741   0.00000  Uiso   1.00
O17    O     0.37741   0.32458   1.04953   0.00000  Uiso   1.00
O18    O     0.41843   0.57408   0.11663   0.00000  Uiso   1.00
O19    O     0.40534   0.47538   1.07505   0.00000  Uiso   1.00
O20    O     0.95022   0.51018   0.81037   0.00000  Uiso   1.00
Yb21   Yb    0.04289   0.48686   0.00156   0.00000  Uiso   1.00
C22    C     0.13653   0.46342   0.00234   0.00000  Uiso   1.00
Yb23   Yb    0.94084   0.51714   1.01827   0.00000  Uiso   1.00
O24    O     0.03503   0.48759   0.80057   0.00000  Uiso   1.00
C25    C     0.84921   0.38124   0.00621   0.00000  Uiso   1.00
C26    C     0.99614   0.50171   0.74831   0.00000  Uiso   1.00
O27    O     0.82642   0.47438   1.01941   0.00000  Uiso   1.00
C28    C     0.84218   0.53465   1.01402   0.00000  Uiso   1.00
O29    O     0.15442   0.58170   1.00268   0.00000  Uiso   1.00
O30    O     0.06059   0.58696   0.01262   0.00000  Uiso   1.00
O31    O     0.03608   0.49623   0.20365   0.00000  Uiso   1.00
O32    O     0.91143   0.58700   0.02489   0.00000  Uiso   1.00
O33    O     0.95183   0.51942   0.22507   0.00000  Uiso   1.00
C34    C     0.13762   0.62113   1.00659   0.00000  Uiso   1.00
C35    C    -0.00244   0.51151   0.27210   0.00000  Uiso   1.00
O36    O     0.15594   0.52542   0.00088   0.00000  Uiso   1.00
O37    O     0.06652   0.41342   0.99402   0.00000  Uiso   1.00
O38    O     0.82926   0.41834   0.01560   0.00000  Uiso   1.00
O39    O     0.92609   0.41909   1.00362   0.00000  Uiso   1.00
O40    O     0.48005   0.02888   0.17997   0.00000  Uiso   1.00
Yb41   Yb    0.52633   0.95384  -0.04681   0.00000  Uiso   1.00
C42    C     0.56997   0.87863   0.92471   0.00000  Uiso   1.00
Yb43   Yb    0.47320   0.03399   0.98194   0.00000  Uiso   1.00
O44    O     0.52181   0.96253   0.16277   0.00000  Uiso   1.00
C45    C     0.61309   0.13566  -0.01924   0.00000  Uiso   1.00
C46    C     0.49704  -0.00653   0.22863   0.00000  Uiso   1.00
O47    O     0.49671   0.13472  -0.00041   0.00000  Uiso   1.00
C48    C     0.42718   0.10680   0.00487   0.00000  Uiso   1.00
O49    O     0.43105   0.84332  -0.05361   0.00000  Uiso   1.00
O50    O     0.41576   0.92484   0.96979   0.00000  Uiso   1.00
O51    O     0.51596   0.95723   0.74944   0.00000  Uiso   1.00
O52    O     0.38270   0.03966   0.99904   0.00000  Uiso   1.00
O53    O     0.47440   0.02351   0.77889   0.00000  Uiso   1.00
C54    C     0.38490   0.85423  -0.03925   0.00000  Uiso   1.00
C55    C     0.49124  -0.01204   0.70688   0.00000  Uiso   1.00
O56    O     0.50078   0.85176   0.93452   0.00000  Uiso   1.00
O57    O     0.61517   0.94571  -0.06910   0.00000  Uiso   1.00
O58    O     0.56473   0.14368   0.99038   0.00000  Uiso   1.00
O59    O     0.58564   0.06534  -0.03097   0.00000  Uiso   1.00
N60    N     0.43489   0.52804   0.64992   0.00000  Uiso   1.00
N61    N     0.43702   0.52919   0.52546   0.00000  Uiso   1.00
C62    C     0.46744   0.49887   0.47277   0.00000  Uiso   1.00
C63    C     0.48465   0.47590   0.56874   0.00000  Uiso   1.00
C64    C     0.46385   0.49692   0.68018   0.00000  Uiso   1.00
H65    H     0.51367   0.45337   0.55982   0.00000  Uiso   1.00
H66    H     0.41599   0.55043   0.71334   0.00000  Uiso   1.00
H67    H     0.41977   0.55242   0.47772   0.00000  Uiso   1.00
N68    N     0.08416   0.55356   0.44644   0.00000  Uiso   1.00
N69    N     0.08332   0.54827   0.56922   0.00000  Uiso   1.00
C70    C     0.01363   0.51667   0.61395   0.00000  Uiso   1.00
C71    C     0.96729   0.50190   0.51451   0.00000  Uiso   1.00
C72    C     0.01498   0.52551   0.40890   0.00000  Uiso   1.00
H73    H     0.90756   0.47349   0.51678   0.00000  Uiso   1.00
H74    H     0.13132   0.57400   0.38838   0.00000  Uiso   1.00
H75    H     0.12999   0.56528   0.62088   0.00000  Uiso   1.00
N76    N     0.41741   0.97783   0.53697   0.00000  Uiso   1.00
N77    N     0.41955   0.98018   0.41292   0.00000  Uiso   1.00
C78    C     0.47767  -0.01665   0.36426   0.00000  Uiso   1.00
C79    C     0.51416  -0.01833   0.46270   0.00000  Uiso   1.00
C80    C     0.47407  -0.02060   0.57140   0.00000  Uiso   1.00
H81    H     0.56508  -0.01285   0.45744   0.00000  Uiso   1.00
H82    H     0.37872   0.97736   0.59744   0.00000  Uiso   1.00
H83    H     0.38244   0.98132   0.36297   0.00000  Uiso   1.00
N84    N     0.17897   0.39134   1.02397   0.00000  Uiso   1.00
N85    N     0.24220   0.40413   1.05192   0.00000  Uiso   1.00
C86    C     0.29543   0.47438   0.06906   0.00000  Uiso   1.00
C87    C     0.26582   0.50769   0.04950   0.00000  Uiso   1.00
C88    C     0.19207   0.45345   0.02098   0.00000  Uiso   1.00
H89    H     0.29443   0.56375   0.05440   0.00000  Uiso   1.00
H90    H     0.12815   0.34122   1.00814   0.00000  Uiso   1.00
H91    H     0.24863   0.36549   1.05853   0.00000  Uiso   1.00
N92    N     0.75011   0.19438  -0.02284   0.00000  Uiso   1.00
N93    N     0.81282   0.25978  -0.01511   0.00000  Uiso   1.00
C94    C     0.79557   0.30420  -0.00340   0.00000  Uiso   1.00
C95    C     0.71914   0.26582  -0.00390   0.00000  Uiso   1.00
C96    C     0.69235   0.19656   0.98368   0.00000  Uiso   1.00
H97    H     0.68735   0.28556   1.00390   0.00000  Uiso   1.00
H98    H     0.74718   0.14942  -0.03201   0.00000  Uiso   1.00
H99    H     0.86623   0.27351  -0.01783   0.00000  Uiso   1.00
N100   N     0.67937   0.48486   0.87603   0.00000  Uiso   1.00
N101   N     0.74414   0.49698   0.86910   0.00000  Uiso   1.00
C102   C     0.78478   0.53816   0.97255   0.00000  Uiso   1.00
C103   C     0.74454   0.55545   1.04816   0.00000  Uiso   1.00
C104   C     0.67794   0.52118   0.98191   0.00000  Uiso   1.00
H105   H     0.75544   0.57749   1.14643   0.00000  Uiso   1.00
H106   H     0.63390   0.44327   0.81987   0.00000  Uiso   1.00
H107   H     0.75598   0.46933   0.80355   0.00000  Uiso   1.00
N108   N     0.18609   0.74599   1.00122   0.00000  Uiso   1.00
N109   N     0.25191   0.80749   0.98675   0.00000  Uiso   1.00
C110   C     0.30450   0.79796  -0.02645   0.00000  Uiso   1.00
C111   C     0.27110   0.72789  -0.01931   0.00000  Uiso   1.00
C112   C     0.19616   0.69674   0.99844   0.00000  Uiso   1.00
H113   H     0.29764   0.70296  -0.02587   0.00000  Uiso   1.00
H114   H     0.13561   0.73817   1.01242   0.00000  Uiso   1.00
H115   H     0.26049   0.85503   0.98637   0.00000  Uiso   1.00
N116   N     0.61884   0.76685  -0.18665   0.00000  Uiso   1.00
N117   N     0.61790   0.81997  -0.20022   0.00000  Uiso   1.00
C118   C     0.59471   0.83491   0.91029   0.00000  Uiso   1.00
C119   C     0.58148   0.79035   0.99811   0.00000  Uiso   1.00
C120   C     0.59793   0.74842  -0.06642   0.00000  Uiso   1.00
H121   H     0.55595   0.78427   1.09141   0.00000  Uiso   1.00
H122   H     0.63029   0.74190  -0.25994   0.00000  Uiso   1.00
H123   H     0.62861   0.84250  -0.28592   0.00000  Uiso   1.00
N124   N     0.33048   0.12548   0.02256   0.00000  Uiso   1.00
N125   N     0.32945   0.17974   0.03086   0.00000  Uiso   1.00
C126   C     0.40033   0.23919   0.02916   0.00000  Uiso   1.00
C127   C     0.44841   0.22241   1.01960   0.00000  Uiso   1.00
C128   C     0.40202   0.14996   0.01576   0.00000  Uiso   1.00
H129   H     0.50876   0.25797   1.01629   0.00000  Uiso   1.00
H130   H     0.28306   0.07293   0.02181   0.00000  Uiso   1.00
H131   H     0.28112   0.17588   0.03795   0.00000  Uiso   1.00
loop_
_geom_bond_atom_site_label_1
_geom_bond_atom_site_label_2
_geom_bond_distance
_geom_bond_site_symmetry_2
_ccdc_geom_bond_type
O0     C6      1.310   .     A
O0     Yb3     2.205   1_556 S
Yb1    O4      2.164   .     S
Yb1    O9      2.091   .     S
Yb1    O17     2.147   .     S
Yb1    O19     2.098   .     S
Yb1    Yb3     2.836   1_556 S
Yb1    O10     2.254   1_556 S
Yb1    O11     2.184   1_556 S
Yb1    O16     2.144   1_556 S
C2     O16     1.282   .     A
C2     C126    1.464   .     S
C2     O17     1.277   1_554 A
Yb3    O10     2.184   .     S
Yb3    O12     2.109   .     S
Yb3    O13     2.129   .     S
Yb3    O18     2.127   .     S
Yb3    O0      2.205   1_554 S
Yb3    Yb1     2.836   1_554 S
Yb3    O7      2.140   1_554 S
Yb3    O19     2.134   1_554 S
O4     C6      1.297   .     A
C5     O18     1.226   .     D
C5     C86     1.457   .     S
C5     O19     1.394   1_554 S
C6     C64     1.465   .     S
O7     C8      1.298   .     A
O7     Yb3     2.140   1_556 S
C8     O12     1.280   1_556 A
C8     C120    1.465   1_556 S
O9     C14     1.220   .     D
O10    Yb1     2.254   1_554 S
O10    C14     1.416   1_554 S
O11    C15     1.295   .     A
O11    Yb1     2.184   1_554 S
O12    C8      1.280   1_554 A
O13    C15     1.287   .     A
C14    C104    1.468   .     S
C14    O10     1.416   1_556 S
C15    C62     1.466   .     S
O16    Yb1     2.144   1_554 S
O17    C2      1.277   1_556 A
O19    Yb3     2.134   1_556 S
O19    C5      1.394   1_556 S
O20    C26     1.305   .     A
O20    Yb23    2.185   .     S
Yb21   O30     2.192   .     S
Yb21   O31     2.122   .     S
Yb21   O36     2.131   .     S
Yb21   Yb23    2.830   1_454 S
Yb21   O24     2.144   1_554 S
Yb21   O29     2.129   1_554 S
Yb21   O37     2.149   1_554 S
Yb21   O39     2.095   1_454 S
C22    O36     1.281   .     A
C22    C88     1.458   .     S
C22    O37     1.278   1_554 A
Yb23   O27     2.131   .     S
Yb23   O39     2.175   .     S
Yb23   Yb21    2.830   1_656 S
Yb23   O30     2.148   1_656 S
Yb23   O32     2.168   1_556 S
Yb23   O33     2.204   1_556 S
Yb23   O38     2.164   1_556 S
O24    Yb21    2.144   1_556 S
O24    C26     1.303   1_455 A
C25    O38     1.227   .     D
C25    C94     1.467   .     S
C25    O39     1.389   1_554 S
C26    O24     1.303   1_655 A
C26    C70     1.468   1_655 S
O27    C28     1.280   .     A
C28    C102    1.464   .     S
C28    O32     1.279   1_556 A
O29    C34     1.227   .     D
O29    Yb21    2.129   1_556 S
O30    Yb23    2.148   1_454 S
O30    C34     1.405   1_554 S
O31    C35     1.296   .     A
O32    Yb23    2.168   1_554 S
O32    C28     1.279   1_554 A
O33    Yb23    2.204   1_554 S
O33    C35     1.309   1_655 A
C34    C112    1.466   .     S
C34    O30     1.405   1_556 S
C35    C72     1.470   .     S
C35    O33     1.309   1_455 A
O37    Yb21    2.149   1_556 S
O37    C22     1.278   1_556 A
O38    Yb23    2.164   1_554 S
O39    Yb21    2.095   1_656 S
O39    C25     1.389   1_556 S
O40    C46     1.301   .     A
O40    Yb43    2.129   1_554 S
Yb41   O44     2.198   .     S
Yb41   O49     2.168   .     S
Yb41   O57     2.147   .     S
Yb41   Yb43    2.840   1_564 S
Yb41   O50     2.158   1_554 S
Yb41   O51     2.195   1_554 S
Yb41   O56     2.153   1_554 S
Yb41   O59     2.142   1_565 S
C42    O56     1.283   .     A
C42    C118    1.469   .     S
C42    O57     1.276   1_556 A
Yb43   O52     2.145   .     S
Yb43   O53     2.128   .     S
Yb43   O58     2.136   .     S
Yb43   O40     2.129   1_556 S
Yb43   Yb41    2.840   1_546 S
Yb43   O47     2.142   1_556 S
Yb43   O50     2.100   1_545 S
Yb43   O59     2.176   1_556 S
O44    C46     1.309   1_565 A
C45    O59     1.401   .     S
C45    O58     1.228   1_554 D
C45    C96     1.466   1_554 S
C46    C78     1.468   .     S
C46    O44     1.309   1_545 A
O47    C48     1.282   .     A
O47    Yb43    2.142   1_554 S
C48    C128    1.464   .     S
C48    O52     1.277   1_554 A
O49    C54     1.230   .     D
O50    Yb41    2.158   1_556 S
O50    Yb43    2.100   1_565 S
O50    C54     1.387   1_556 S
O51    Yb41    2.195   1_556 S
O51    C55     1.307   1_565 A
O52    C48     1.277   1_556 A
O53    C55     1.299   .     A
C54    C110    1.469   .     S
C54    O50     1.387   1_554 S
C55    C80     1.467   .     S
C55    O51     1.307   1_545 A
O56    Yb41    2.153   1_556 S
O57    C42     1.276   1_554 A
O58    C45     1.228   1_556 D
O59    Yb41    2.142   1_545 S
O59    Yb43    2.176   1_554 S
N60    N61     1.313   .     A
N60    C64     1.345   .     A
N60    H66     1.045   .     S
N61    C62     1.346   .     A
N61    H67     1.046   .     S
C62    C63     1.395   .     A
C63    C64     1.396   .     A
C63    H65     1.082   .     S
N68    N69     1.313   .     A
N68    C72     1.347   .     A
N68    H74     1.045   .     S
N69    C70     1.343   .     A
N69    H75     1.045   .     S
C70    C71     1.398   1_455 A
C70    C26     1.468   1_455 S
C71    H73     1.082   .     S
C71    C70     1.398   1_655 A
C71    C72     1.396   1_655 A
C72    C71     1.396   1_455 A
N76    N77     1.312   .     A
N76    H82     1.045   .     S
N76    C80     1.345   1_565 A
N77    H83     1.045   .     S
N77    C78     1.345   1_565 A
C78    C79     1.396   .     A
C78    N77     1.345   1_545 A
C79    C80     1.397   .     A
C79    H81     1.082   .     S
C80    N76     1.345   1_545 A
N84    N85     1.323   .     A
N84    H90     1.045   .     S
N84    C88     1.347   1_556 A
N85    H91     1.045   .     S
N85    C86     1.349   1_556 A
C86    C87     1.372   .     A
C86    N85     1.349   1_554 A
C87    C88     1.379   .     A
C87    H89     1.082   .     S
C88    N84     1.347   1_554 A
N92    N93     1.325   .     A
N92    H98     1.045   .     S
N92    C96     1.347   1_554 A
N93    C94     1.348   .     A
N93    H99     1.044   .     S
C94    C95     1.379   .     A
C95    C96     1.381   1_554 A
C95    H97     1.083   1_554 S
C96    N92     1.347   1_556 A
C96    C95     1.381   1_556 A
C96    C45     1.466   1_556 S
H97    C95     1.083   1_556 S
N100   N101    1.314   .     A
N100   C104    1.354   .     A
N100   H106    1.052   .     S
N101   C102    1.344   .     A
N101   H107    1.045   .     S
C102   C103    1.395   .     A
C103   C104    1.397   .     A
C103   H105    1.082   .     S
N108   N109    1.325   .     A
N108   C112    1.346   .     A
N108   H114    1.044   .     S
N109   H115    1.045   .     S
N109   C110    1.350   1_556 A
C110   C111    1.377   .     A
C110   N109    1.350   1_554 A
C111   H113    1.083   .     S
C111   C112    1.384   1_554 A
C112   C111    1.384   1_556 A
N116   N117    1.326   .     A
N116   C120    1.346   .     A
N116   H122    1.045   .     S
N117   H123    1.044   .     S
N117   C118    1.349   1_554 A
C118   C119    1.379   .     A
C118   N117    1.349   1_556 A
C119   H121    1.083   .     S
C119   C120    1.384   1_556 A
C120   C119    1.384   1_554 A
C120   C8      1.465   1_554 S
N124   N125    1.324   .     A
N124   C128    1.347   .     A
N124   H130    1.045   .     S
N125   C126    1.348   .     A
N125   H131    1.044   .     S
C126   C127    1.380   1_554 A
C127   H129    1.083   .     S
C127   C126    1.380   1_556 A
C127   C128    1.380   1_556 A
C128   C127    1.380   1_554 A
