data_kag+N144+E1
_audit_creation_date              2025-01-21
_audit_creation_method            'Materials Studio'
_symmetry_space_group_name_H-M    'P1'
_symmetry_Int_Tables_number       1
_symmetry_cell_setting            triclinic
loop_
_symmetry_equiv_pos_as_xyz
  x,y,z
_cell_length_a                    41.3782
_cell_length_b                    41.3000
_cell_length_c                    20.0280
_cell_angle_alpha                 88.7911
_cell_angle_beta                  98.1256
_cell_angle_gamma                 122.2300
loop_
_atom_site_label
_atom_site_type_symbol
_atom_site_fract_x
_atom_site_fract_y
_atom_site_fract_z
_atom_site_U_iso_or_equiv
_atom_site_adp_type
_atom_site_occupancy
C0     C     0.65318   0.60010   0.98236   0.00000  Uiso   1.00
Er1    Er    0.50476   0.53231  -0.00351   0.00000  Uiso   1.00
Er2    Er    0.57009   0.56386   0.01439   0.00000  Uiso   1.00
C3     C     0.54345   0.61960   0.00157   0.00000  Uiso   1.00
O4     O     0.56889   0.56248   0.90563   0.00000  Uiso   1.00
C5     C     0.53719   0.54853   0.14579   0.00000  Uiso   1.00
C6     C     0.53426   0.47848   0.00574   0.00000  Uiso   1.00
C7     C     0.43774   0.52682   0.98410   0.00000  Uiso   1.00
O8     O     0.64544   0.61471   0.93438   0.00000  Uiso   1.00
O9     O     0.63412   0.59260   1.03806   0.00000  Uiso   1.00
O10    O     0.56692   0.50972   0.01576   0.00000  Uiso   1.00
O11    O     0.50380   0.47934  -0.00253   0.00000  Uiso   1.00
O12    O     0.56902   0.56405   0.12238   0.00000  Uiso   1.00
O13    O     0.50553   0.53249   0.10518   0.00000  Uiso   1.00
C14    C     0.53701   0.54741   0.86507   0.00000  Uiso   1.00
O15    O     0.50535   0.53280   0.88801   0.00000  Uiso   1.00
O16    O     0.57390   0.61846   0.01169   0.00000  Uiso   1.00
O17    O     0.51024   0.58824  -0.00527   0.00000  Uiso   1.00
O18    O     0.44178   0.49874   0.98266   0.00000  Uiso   1.00
O19    O     0.47002   0.55863   0.98857   0.00000  Uiso   1.00
C20    C     0.97019   0.41219   0.94567   0.00000  Uiso   1.00
Er21   Er    0.04294   0.55064   0.04012   0.00000  Uiso   1.00
Er22   Er    1.00280   0.48520   0.02962   0.00000  Uiso   1.00
C23    C     0.08802   0.51220   0.04389   0.00000  Uiso   1.00
O24    O     0.00147   0.48866   0.92011   0.00000  Uiso   1.00
C25    C     0.02376   0.51525   0.17533   0.00000  Uiso   1.00
C26    C     0.95879   0.52564   0.02025   0.00000  Uiso   1.00
C27    C     0.08632   0.61999   0.99935   0.00000  Uiso   1.00
O28    O     0.99619   0.40616   0.94932   0.00000  Uiso   1.00
O29    O     0.97830   0.44901   0.93339   0.00000  Uiso   1.00
O30    O     0.95367   0.49226   0.02103   0.00000  Uiso   1.00
O31    O    -0.00707   0.55526   0.02711   0.00000  Uiso   1.00
O32    O     0.00523   0.48423   0.13858   0.00000  Uiso   1.00
O33    O     0.04180   0.54677   0.14800   0.00000  Uiso   1.00
C34    C     0.02139   0.52037   0.89301   0.00000  Uiso   1.00
O35    O     0.04203   0.55153   0.93036   0.00000  Uiso   1.00
O36    O     0.05418   0.48189   0.03668   0.00000  Uiso   1.00
O37    O     0.09223   0.54481   0.05076   0.00000  Uiso   1.00
O38    O     0.08083   0.61246   1.05936   0.00000  Uiso   1.00
O39    O     0.06736   0.59001   0.95945   0.00000  Uiso   1.00
C40    C     0.46942   0.10632   1.00193   0.00000  Uiso   1.00
Er41   Er    0.52928   1.01492   0.03531   0.00000  Uiso   1.00
Er42   Er    0.50657   0.05353   0.02165   0.00000  Uiso   1.00
C43    C     0.44108   0.97156   0.01362   0.00000  Uiso   1.00
O44    O     0.50813   0.04977   0.91533   0.00000  Uiso   1.00
C45    C     0.51756   0.04330   0.16730   0.00000  Uiso   1.00
C46    C     0.59459   0.09689   0.04009   0.00000  Uiso   1.00
C47    C     0.54690   0.96642   0.99678   0.00000  Uiso   1.00
O48    O     0.44305   0.08365   1.03168   0.00000  Uiso   1.00
O49    O     0.49689   0.09929   0.98766   0.00000  Uiso   1.00
O50    O     0.56620   0.10107   0.03741   0.00000  Uiso   1.00
O51    O     0.58856   0.06334   0.04031   0.00000  Uiso   1.00
O52    O     0.50412   0.05918   0.12763   0.00000  Uiso   1.00
O53    O     0.53085   0.02525   0.14284   0.00000  Uiso   1.00
C54    C     0.51699   0.02904   0.88770   0.00000  Uiso   1.00
O55    O     0.52635   0.00875   0.92464   0.00000  Uiso   1.00
O56    O     0.44720   0.00501   0.00546   0.00000  Uiso   1.00
O57    O     0.46956   0.96743   0.02957   0.00000  Uiso   1.00
O58    O     0.53564   0.98355   0.95552   0.00000  Uiso   1.00
O59    O     0.54980   0.97638   1.05751   0.00000  Uiso   1.00
C60    C     0.53793   0.54968   0.36077   0.00000  Uiso   1.00
C61    C     0.57254   0.56465   0.33411   0.00000  Uiso   1.00
C62    C     0.57228   0.56432   0.26436   0.00000  Uiso   1.00
C63    C     0.53742   0.54923   0.21956   0.00000  Uiso   1.00
C64    C     0.50278   0.53478   0.24611   0.00000  Uiso   1.00
C65    C     0.50306   0.53493   0.31600   0.00000  Uiso   1.00
C66    C     0.53822   0.54891   0.43499   0.00000  Uiso   1.00
C67    C     0.51051   0.51597   0.46335   0.00000  Uiso   1.00
C68    C     0.51083   0.51520   0.53326   0.00000  Uiso   1.00
C69    C     0.53871   0.54743   0.57629   0.00000  Uiso   1.00
C70    C     0.56659   0.58027   0.54797   0.00000  Uiso   1.00
C71    C     0.56636   0.58098   0.47808   0.00000  Uiso   1.00
C72    C     0.53829   0.54701   0.65035   0.00000  Uiso   1.00
C73    C     0.57286   0.56208   0.69600   0.00000  Uiso   1.00
C74    C     0.57238   0.56205   0.76568   0.00000  Uiso   1.00
C75    C     0.53749   0.54725   0.79109   0.00000  Uiso   1.00
C76    C     0.50286   0.53221   0.74550   0.00000  Uiso   1.00
C77    C     0.50334   0.53204   0.67581   0.00000  Uiso   1.00
H78    H     0.59978   0.57601   0.36728   0.00000  Uiso   1.00
H79    H     0.59949   0.57584   0.24551   0.00000  Uiso   1.00
H80    H     0.47553   0.52353   0.21282   0.00000  Uiso   1.00
H81    H     0.47603   0.52399   0.33506   0.00000  Uiso   1.00
H82    H     0.48886   0.49057   0.43156   0.00000  Uiso   1.00
H83    H     0.48964   0.48915   0.55378   0.00000  Uiso   1.00
H84    H     0.58823   0.60568   0.57971   0.00000  Uiso   1.00
H85    H     0.58779   0.60688   0.45755   0.00000  Uiso   1.00
H86    H     0.60019   0.57348   0.67790   0.00000  Uiso   1.00
H87    H     0.59953   0.57366   0.79947   0.00000  Uiso   1.00
H88    H     0.47547   0.52071   0.76346   0.00000  Uiso   1.00
H89    H     0.47634   0.52082   0.64185   0.00000  Uiso   1.00
C90    C     0.02215   0.52001   0.67837   0.00000  Uiso   1.00
C91    C    -0.00028   0.48575   0.70925   0.00000  Uiso   1.00
C92    C    -0.00099   0.48605   0.77863   0.00000  Uiso   1.00
C93    C     0.02093   0.52062   0.81895   0.00000  Uiso   1.00
C94    C     0.04316   0.55502   0.78807   0.00000  Uiso   1.00
C95    C     0.04382   0.55473   0.71844   0.00000  Uiso   1.00
C96    C     0.02285   0.51927   0.60461   0.00000  Uiso   1.00
C97    C     0.02070   0.54677   0.56513   0.00000  Uiso   1.00
C98    C     0.02081   0.54558   0.49547   0.00000  Uiso   1.00
C99    C     0.02316   0.51696   0.46390   0.00000  Uiso   1.00
C100   C     0.02520   0.48945   0.50339   0.00000  Uiso   1.00
C101   C     0.02512   0.49063   0.57298   0.00000  Uiso   1.00
C102   C     0.02392   0.51610   0.39014   0.00000  Uiso   1.00
C103   C     0.00266   0.48124   0.35047   0.00000  Uiso   1.00
C104   C     0.00274   0.48075   0.28067   0.00000  Uiso   1.00
C105   C     0.02422   0.51511   0.24931   0.00000  Uiso   1.00
C106   C     0.04590   0.54986   0.28919   0.00000  Uiso   1.00
C107   C     0.04580   0.55032   0.35879   0.00000  Uiso   1.00
H108   H    -0.01753   0.45862   0.67965   0.00000  Uiso   1.00
H109   H    -0.01848   0.45906   0.80069   0.00000  Uiso   1.00
H110   H     0.06045   0.58209   0.81779   0.00000  Uiso   1.00
H111   H     0.06196   0.58154   0.69624   0.00000  Uiso   1.00
H112   H     0.01813   0.56870   0.58788   0.00000  Uiso   1.00
H113   H     0.01830   0.56664   0.46602   0.00000  Uiso   1.00
H114   H     0.02741   0.46731   0.48055   0.00000  Uiso   1.00
H115   H     0.02724   0.46930   0.60218   0.00000  Uiso   1.00
H116   H    -0.01473   0.45443   0.37318   0.00000  Uiso   1.00
H117   H    -0.01427   0.45351   0.25129   0.00000  Uiso   1.00
H118   H     0.06292   0.57680   0.26655   0.00000  Uiso   1.00
H119   H     0.06311   0.57750   0.38821   0.00000  Uiso   1.00
C120   C     0.51638   0.04443   0.38257   0.00000  Uiso   1.00
C121   C     0.53020   1.02480   0.35219   0.00000  Uiso   1.00
C122   C     0.53090   1.02505   0.28286   0.00000  Uiso   1.00
C123   C     0.51774   0.04491   0.24147   0.00000  Uiso   1.00
C124   C     0.50457   0.06533   0.27184   0.00000  Uiso   1.00
C125   C     0.50418   0.06535   0.34193   0.00000  Uiso   1.00
C126   C     0.51450   0.04209   0.45625   0.00000  Uiso   1.00
C127   C     0.52699   0.07482   0.49794   0.00000  Uiso   1.00
C128   C     0.52747   0.07246   0.56793   0.00000  Uiso   1.00
C129   C     0.51547   0.03734   0.59773   0.00000  Uiso   1.00
C130   C     0.50211   1.00451   0.55563   0.00000  Uiso   1.00
C131   C     0.50171   1.00690   0.48589   0.00000  Uiso   1.00
C132   C     0.51627   0.03479   0.67218   0.00000  Uiso   1.00
C133   C     0.52826   1.01233   0.70832   0.00000  Uiso   1.00
C134   C     0.52837   1.00982   0.77841   0.00000  Uiso   1.00
C135   C     0.51649   0.02977   0.81348   0.00000  Uiso   1.00
C136   C     0.50460   0.05216   0.77713   0.00000  Uiso   1.00
C137   C     0.50459   0.05474   0.70771   0.00000  Uiso   1.00
H138   H     0.54049   1.00907   0.38226   0.00000  Uiso   1.00
H139   H     0.54137   1.00912   0.26162   0.00000  Uiso   1.00
H140   H     0.49417   0.08089   0.24148   0.00000  Uiso   1.00
H141   H     0.49340   0.08083   0.36397   0.00000  Uiso   1.00
H142   H     0.53757   0.10243   0.47674   0.00000  Uiso   1.00
H143   H     0.53814   0.09837   0.59892   0.00000  Uiso   1.00
H144   H     0.49169   0.97685   0.57645   0.00000  Uiso   1.00
H145   H     0.49136   0.98109   0.45484   0.00000  Uiso   1.00
H146   H     0.53824   0.99726   0.68257   0.00000  Uiso   1.00
H147   H     0.53800   0.99265   0.80511   0.00000  Uiso   1.00
H148   H     0.49527   0.06800   0.80242   0.00000  Uiso   1.00
H149   H     0.49495   0.07209   0.68183   0.00000  Uiso   1.00
C150   C     0.32833   0.51412   0.99303   0.00000  Uiso   1.00
C151   C     0.36064   0.55007   0.98259   0.00000  Uiso   1.00
C152   C     0.39619   0.55431   0.97873   0.00000  Uiso   1.00
C153   C     0.40005   0.52261   0.98453   0.00000  Uiso   1.00
C154   C     0.36784   0.48669  -0.00531   0.00000  Uiso   1.00
C155   C     0.33242   0.48249  -0.00076   0.00000  Uiso   1.00
C156   C     0.29076   0.50994   0.99787   0.00000  Uiso   1.00
C157   C     0.26781   0.48701   0.04573   0.00000  Uiso   1.00
C158   C     0.23361   0.48508   0.05236   0.00000  Uiso   1.00
C159   C     0.22168   0.50610   1.01169   0.00000  Uiso   1.00
C160   C     0.24408   0.52814   0.96263   0.00000  Uiso   1.00
C161   C     0.27805   0.52990   0.95579   0.00000  Uiso   1.00
C162   C     0.18745   0.50708   0.02268   0.00000  Uiso   1.00
C163   C     0.18967   0.54222   1.02317   0.00000  Uiso   1.00
C164   C     0.15773   0.54378   1.03236   0.00000  Uiso   1.00
C165   C     0.12254   0.51020   0.04080   0.00000  Uiso   1.00
C166   C     0.12029   0.47500   0.04083   0.00000  Uiso   1.00
C167   C     0.15250   0.47344   0.03223   0.00000  Uiso   1.00
H168   H     0.35864   0.57515   0.97888   0.00000  Uiso   1.00
H169   H     0.42074   0.58246   0.97227   0.00000  Uiso   1.00
H170   H     0.37035   0.46197   0.00075   0.00000  Uiso   1.00
H171   H     0.30823   0.45444   0.00747   0.00000  Uiso   1.00
H172   H     0.27678   0.47140   0.07935   0.00000  Uiso   1.00
H173   H     0.21724   0.46819   0.09100   0.00000  Uiso   1.00
H174   H     0.23539   0.54415   0.92946   0.00000  Uiso   1.00
H175   H     0.29447   0.54707   0.91742   0.00000  Uiso   1.00
H176   H     0.21623   0.56864   1.01622   0.00000  Uiso   1.00
H177   H     0.16042   0.57132   1.03115   0.00000  Uiso   1.00
H178   H     0.09354   0.44859   0.04658   0.00000  Uiso   1.00
H179   H     0.14969   0.44582   0.03139   0.00000  Uiso   1.00
C180   C     0.85557   0.32209   0.97368   0.00000  Uiso   1.00
C181   C     0.88431   0.31408   0.96994   0.00000  Uiso   1.00
C182   C     0.92153   0.34331   0.96104   0.00000  Uiso   1.00
C183   C     0.93079   0.38116   0.95501   0.00000  Uiso   1.00
C184   C     0.90204   0.38921   0.95832   0.00000  Uiso   1.00
C185   C     0.86484   0.36000   0.96794   0.00000  Uiso   1.00
C186   C     0.81615   0.29073   0.98335   0.00000  Uiso   1.00
C187   C     0.79582   0.29605   0.02800   0.00000  Uiso   1.00
C188   C     0.75971   0.26542   0.03983   0.00000  Uiso   1.00
C189   C     0.74345   0.22899   1.00751   0.00000  Uiso   1.00
C190   C     0.76314   0.22415   0.96108   0.00000  Uiso   1.00
C191   C     0.79903   0.25465   0.94910   0.00000  Uiso   1.00
C192   C     0.70611   0.19586   0.02189   0.00000  Uiso   1.00
C193   C     0.70143   0.15977   1.03027   0.00000  Uiso   1.00
C194   C     0.66552   0.12769   1.03864   0.00000  Uiso   1.00
C195   C     0.63365   0.13121   0.03919   0.00000  Uiso   1.00
C196   C     0.63869   0.16761   0.03310   0.00000  Uiso   1.00
C197   C     0.67459   0.19964   0.02469   0.00000  Uiso   1.00
H198   H     0.87824   0.28528   0.97529   0.00000  Uiso   1.00
H199   H     0.94302   0.33619   0.95863   0.00000  Uiso   1.00
H200   H     0.90835   0.41813  -0.04603   0.00000  Uiso   1.00
H201   H     0.84326   0.36703  -0.02996   0.00000  Uiso   1.00
H202   H     0.80832   0.32349   0.05539   0.00000  Uiso   1.00
H203   H     0.74500   0.26994   0.07558   0.00000  Uiso   1.00
H204   H     0.75074   0.19669   0.93389   0.00000  Uiso   1.00
H205   H     0.81346   0.24993   0.91305   0.00000  Uiso   1.00
H206   H     0.72555   0.15633   1.02961   0.00000  Uiso   1.00
H207   H     0.66254   0.10007   1.04311   0.00000  Uiso   1.00
H208   H     0.61458   0.17123   0.03261   0.00000  Uiso   1.00
H209   H     0.67729   0.22704   0.01800   0.00000  Uiso   1.00
C210   C     0.86424   0.54368   0.99860   0.00000  Uiso   1.00
C211   C     0.85888   0.50845   0.01958   0.00000  Uiso   1.00
C212   C     0.88910   0.50192   0.02482   0.00000  Uiso   1.00
C213   C     0.92573   0.53079   0.01106   0.00000  Uiso   1.00
C214   C     0.93101   0.56561  -0.01079   0.00000  Uiso   1.00
C215   C     0.90068   0.57174  -0.01802   0.00000  Uiso   1.00
C216   C     0.83250   0.55150   0.99457   0.00000  Uiso   1.00
C217   C     0.84116   0.58941   1.00150   0.00000  Uiso   1.00
C218   C     0.81177   0.59692   0.99715   0.00000  Uiso   1.00
C219   C     0.77285   0.56678   0.98783   0.00000  Uiso   1.00
C220   C     0.76384   0.52893   0.98182   0.00000  Uiso   1.00
C221   C     0.79320   0.52139   0.98412   0.00000  Uiso   1.00
C222   C     0.74186   0.57494   0.98539   0.00000  Uiso   1.00
C223   C     0.71229   0.55512   1.02491   0.00000  Uiso   1.00
C224   C     0.68386   0.56378   1.02452   0.00000  Uiso   1.00
C225   C     0.68380   0.59167   0.98313   0.00000  Uiso   1.00
C226   C     0.71301   0.61103   0.94271   0.00000  Uiso   1.00
C227   C     0.74207   0.60312   0.94455   0.00000  Uiso   1.00
H228   H     0.83168   0.48606   0.03371   0.00000  Uiso   1.00
H229   H     0.88418   0.47472   0.04147   0.00000  Uiso   1.00
H230   H     0.95878   0.58826  -0.02284   0.00000  Uiso   1.00
H231   H     0.90609   0.59865   0.96308   0.00000  Uiso   1.00
H232   H     0.87070   0.61359   1.01155   0.00000  Uiso   1.00
H233   H     0.81951   0.62636   1.00275   0.00000  Uiso   1.00
H234   H     0.73396   0.50517   0.97432   0.00000  Uiso   1.00
H235   H     0.78483   0.49189   0.97689   0.00000  Uiso   1.00
H236   H     0.71174   0.53354   1.05726   0.00000  Uiso   1.00
H237   H     0.66167   0.54835   1.05612   0.00000  Uiso   1.00
H238   H     0.71374   0.63275   0.91057   0.00000  Uiso   1.00
H239   H     0.76462   0.61882   0.91373   0.00000  Uiso   1.00
C240   C     0.32585   0.87137  -0.02378   0.00000  Uiso   1.00
C241   C     0.33287   0.90755   0.95959   0.00000  Uiso   1.00
C242   C     0.37022   0.94019   0.97264   0.00000  Uiso   1.00
C243   C     0.40128   0.93733   0.00292   0.00000  Uiso   1.00
C244   C     0.39416   0.90118   0.02044   0.00000  Uiso   1.00
C245   C     0.35682   0.86860   0.00751   0.00000  Uiso   1.00
C246   C     0.28626   0.83667  -0.03675   0.00000  Uiso   1.00
C247   C     0.27996   0.80199  -0.06217   0.00000  Uiso   1.00
C248   C     0.24337   0.76836  -0.06775   0.00000  Uiso   1.00
C249   C     0.21228   0.76871   0.95201   0.00000  Uiso   1.00
C250   C     0.21824   0.80379   0.97451   0.00000  Uiso   1.00
C251   C     0.25479   0.83746   0.97974   0.00000  Uiso   1.00
C252   C     0.17546   0.73206   0.95713   0.00000  Uiso   1.00
C253   C     0.15975   0.70128   0.90846   0.00000  Uiso   1.00
C254   C     0.12882   0.66492   0.91984   0.00000  Uiso   1.00
C255   C     0.11347   0.65890   0.98025   0.00000  Uiso   1.00
C256   C     0.12754   0.69015   0.02672   0.00000  Uiso   1.00
C257   C     0.15804   0.72635   0.01513   0.00000  Uiso   1.00
H258   H     0.30954   0.91059   0.93582   0.00000  Uiso   1.00
H259   H     0.37489   0.96755   0.95785   0.00000  Uiso   1.00
H260   H     0.41740   0.89800   0.04428   0.00000  Uiso   1.00
H261   H     0.35208   0.84130   0.02301   0.00000  Uiso   1.00
H262   H     0.30353   0.80067  -0.07649   0.00000  Uiso   1.00
H263   H     0.23996   0.74176  -0.08427   0.00000  Uiso   1.00
H264   H     0.19491   0.80504   0.99016   0.00000  Uiso   1.00
H265   H     0.25872   0.86376   0.99936   0.00000  Uiso   1.00
H266   H     0.17213   0.70516   0.86262   0.00000  Uiso   1.00
H267   H     0.11832   0.64119   0.88326   0.00000  Uiso   1.00
H268   H     0.11603   0.68631   0.07358   0.00000  Uiso   1.00
H269   H     0.16939   0.74939   0.05357   0.00000  Uiso   1.00
C270   C     0.55990   0.87253   0.96268   0.00000  Uiso   1.00
C271   C     0.58892   0.90506   0.00414   0.00000  Uiso   1.00
C272   C     0.58565   0.93659   0.01249   0.00000  Uiso   1.00
C273   C     0.55412   0.93698   0.97745   0.00000  Uiso   1.00
C274   C     0.52702   0.90638   0.93080   0.00000  Uiso   1.00
C275   C     0.52976   0.87425   0.92380   0.00000  Uiso   1.00
C276   C     0.55933   0.83607   0.96562   0.00000  Uiso   1.00
C277   C     0.54461   0.80986   0.90895   0.00000  Uiso   1.00
C278   C     0.54240   0.77484   0.91431   0.00000  Uiso   1.00
C279   C     0.55495   0.76535   0.97623   0.00000  Uiso   1.00
C280   C     0.57011   0.79164   0.03242   0.00000  Uiso   1.00
C281   C     0.57193   0.82630   0.02733   0.00000  Uiso   1.00
C282   C     0.55196   0.72804  -0.01728   0.00000  Uiso   1.00
C283   C     0.58406   0.72666   0.01212   0.00000  Uiso   1.00
C284   C     0.58134   0.69149   0.01828   0.00000  Uiso   1.00
C285   C     0.54624   0.65689  -0.00351   0.00000  Uiso   1.00
C286   C     0.51397   0.65833   0.96794   0.00000  Uiso   1.00
C287   C     0.51689   0.69355   0.96065   0.00000  Uiso   1.00
H288   H     0.61356   0.90561   0.03216   0.00000  Uiso   1.00
H289   H     0.60709   0.96014   0.04820   0.00000  Uiso   1.00
H290   H     0.50220   0.90597   0.90361   0.00000  Uiso   1.00
H291   H     0.50704   0.84995   0.89102   0.00000  Uiso   1.00
H292   H     0.53481   0.81633   0.86047   0.00000  Uiso   1.00
H293   H     0.53130   0.75529   0.86993   0.00000  Uiso   1.00
H294   H     0.57975   0.78501   0.08090   0.00000  Uiso   1.00
H295   H     0.58229   0.84505   0.07257   0.00000  Uiso   1.00
H296   H     0.61142   0.75292   0.02944   0.00000  Uiso   1.00
H297   H     0.60673   0.69138   0.04016   0.00000  Uiso   1.00
H298   H     0.48660   0.63226   0.95016   0.00000  Uiso   1.00
H299   H     0.49162   0.69388   0.93853   0.00000  Uiso   1.00
C300   C     0.52358   0.37005  -0.02042   0.00000  Uiso   1.00
C301   C     0.56028   0.40422  -0.01228   0.00000  Uiso   1.00
C302   C     0.56406   0.43956  -0.00166   0.00000  Uiso   1.00
C303   C     0.53124   0.44128   0.00125   0.00000  Uiso   1.00
C304   C     0.49479   0.40699   0.99497   0.00000  Uiso   1.00
C305   C     0.49101   0.37183   0.98446   0.00000  Uiso   1.00
C306   C     0.51857   0.33247   0.96506   0.00000  Uiso   1.00
C307   C     0.48688   0.30507   0.91870   0.00000  Uiso   1.00
C308   C     0.47892   0.26788   0.91116   0.00000  Uiso   1.00
C309   C     0.50275   0.25756   0.94935   0.00000  Uiso   1.00
C310   C     0.53614   0.28571  -0.00824   0.00000  Uiso   1.00
C311   C     0.54393   0.32284  -0.00030   0.00000  Uiso   1.00
C312   C     0.49140   0.21706   0.95035   0.00000  Uiso   1.00
C313   C     0.51934   0.20791   0.94933   0.00000  Uiso   1.00
C314   C     0.51096   0.17142   0.96369   0.00000  Uiso   1.00
C315   C     0.47464   0.14316   0.98045   0.00000  Uiso   1.00
C316   C     0.44556   0.15132   0.97628   0.00000  Uiso   1.00
C317   C     0.45384   0.18803   0.96048   0.00000  Uiso   1.00
H318   H     0.58591   0.40375  -0.01588   0.00000  Uiso   1.00
H319   H     0.59250   0.46557   0.00243   0.00000  Uiso   1.00
H320   H     0.46894   0.40729   0.99713   0.00000  Uiso   1.00
H321   H     0.46245   0.34593   0.98006   0.00000  Uiso   1.00
H322   H     0.46766   0.31217   0.88945   0.00000  Uiso   1.00
H323   H     0.45376   0.24696   0.87654   0.00000  Uiso   1.00
H324   H     0.55511   0.27847   0.02162   0.00000  Uiso   1.00
H325   H     0.56864   0.34333   0.03549   0.00000  Uiso   1.00
H326   H     0.54816   0.22932  -0.06046   0.00000  Uiso   1.00
H327   H     0.53388   0.16606  -0.03544   0.00000  Uiso   1.00
H328   H     0.41683   0.12980   0.98606   0.00000  Uiso   1.00
H329   H     0.43154   0.19436   0.95949   0.00000  Uiso   1.00
loop_
_geom_bond_atom_site_label_1
_geom_bond_atom_site_label_2
_geom_bond_distance
_geom_bond_site_symmetry_2
_ccdc_geom_bond_type
C0     O8      1.218   .     D
C0     O9      1.391   .     S
C0     C225    1.480   .     S
Er1    O11     2.166   .     S
Er1    O13     2.173   .     S
Er1    O17     2.197   .     S
Er1    O15     2.176   1_554 S
Er1    O18     2.179   1_554 S
Er1    O19     2.206   1_554 S
Er2    O10     2.169   .     S
Er2    O12     2.170   .     S
Er2    O16     2.175   .     S
Er2    O4      2.173   1_554 S
Er2    O9      2.229   1_554 S
C3     O16     1.274   .     A
C3     O17     1.281   .     A
C3     C285    1.484   .     S
O4     C14     1.277   .     A
O4     Er2     2.173   1_556 S
C5     O12     1.275   .     A
C5     O13     1.270   .     A
C5     C63     1.477   .     S
C6     O10     1.267   .     A
C6     O11     1.267   .     A
C6     C303    1.477   .     S
C7     O18     1.258   .     A
C7     O19     1.272   .     A
C7     C153    1.476   .     S
O9     Er2     2.229   1_556 S
C14    O15     1.268   .     A
C14    C75     1.485   .     S
O15    Er1     2.176   1_556 S
O18    Er1     2.179   1_556 S
O19    Er1     2.206   1_556 S
C20    O28     1.220   .     D
C20    O29     1.396   .     S
C20    C183    1.477   .     S
Er21   O31     2.157   .     S
Er21   O33     2.169   .     S
Er21   O37     2.159   .     S
Er21   O35     2.193   1_554 S
Er21   O38     2.174   1_554 S
Er21   O39     2.208   1_554 S
Er22   O30     2.186   .     S
Er22   O24     2.190   1_654 S
Er22   O29     2.220   1_554 S
Er22   O32     2.171   1_655 S
Er22   O36     2.187   1_655 S
C23    O36     1.276   .     A
C23    O37     1.271   .     A
C23    C165    1.484   .     S
O24    C34     1.278   .     A
O24    Er22    2.190   1_456 S
C25    O32     1.266   .     A
C25    O33     1.265   .     A
C25    C105    1.479   .     S
C26    O30     1.278   .     A
C26    C213    1.479   .     S
C26    O31     1.273   1_655 A
C27    O38     1.256   .     A
C27    O39     1.271   .     A
C27    C255    1.470   .     S
O29    Er22    2.220   1_556 S
O31    C26     1.273   1_455 A
O32    Er22    2.171   1_455 S
C34    O35     1.278   .     A
C34    C93     1.481   .     S
O35    Er21    2.193   1_556 S
O36    Er22    2.187   1_455 S
O38    Er21    2.174   1_556 S
O39    Er21    2.208   1_556 S
C40    O48     1.222   .     D
C40    O49     1.381   .     S
C40    C315    1.481   .     S
Er41   O57     2.174   .     S
Er41   O51     2.175   1_565 S
Er41   O53     2.190   1_565 S
Er41   O55     2.215   1_564 S
Er41   O58     2.207   1_554 S
Er41   O59     2.181   1_554 S
Er42   O50     2.164   .     S
Er42   O52     2.163   .     S
Er42   O56     2.170   .     S
Er42   O44     2.151   1_554 S
Er42   O49     2.207   1_554 S
C43    O57     1.275   .     A
C43    C243    1.479   .     S
C43    O56     1.276   1_565 A
O44    C54     1.259   .     A
O44    Er42    2.151   1_556 S
C45    O52     1.270   .     A
C45    O53     1.275   .     A
C45    C123    1.487   .     S
C46    O50     1.269   .     A
C46    O51     1.270   .     A
C46    C195    1.478   .     S
C47    O58     1.272   .     A
C47    O59     1.261   .     A
C47    C273    1.469   .     S
O49    Er42    2.207   1_556 S
O51    Er41    2.175   1_545 S
O53    Er41    2.190   1_545 S
C54    O55     1.280   .     A
C54    C135    1.483   .     S
O55    Er41    2.215   1_546 S
O56    C43     1.276   1_545 A
O58    Er41    2.207   1_556 S
O59    Er41    2.181   1_556 S
C60    C61     1.406   .     A
C60    C65     1.406   .     A
C60    C66     1.485   .     S
C61    C62     1.396   .     A
C61    H78     1.082   .     S
C62    C63     1.405   .     A
C62    H79     1.085   .     S
C63    C64     1.408   .     A
C64    C65     1.398   .     A
C64    H80     1.083   .     S
C65    H81     1.084   .     S
C66    C67     1.406   .     A
C66    C71     1.405   .     A
C67    C68     1.398   .     A
C67    H82     1.083   .     S
C68    C69     1.405   .     A
C68    H83     1.083   .     S
C69    C70     1.406   .     A
C69    C72     1.485   .     S
C70    C71     1.398   .     A
C70    H84     1.083   .     S
C71    H85     1.083   .     S
C72    C73     1.405   .     A
C72    C77     1.405   .     A
C73    C74     1.399   .     A
C73    H86     1.083   .     S
C74    C75     1.404   .     A
C74    H87     1.083   .     S
C75    C76     1.406   .     A
C76    C77     1.399   .     A
C76    H88     1.083   .     S
C77    H89     1.083   .     S
C90    C91     1.404   .     A
C90    C95     1.406   .     A
C90    C96     1.483   .     S
C91    C92     1.394   .     A
C91    H108    1.082   .     S
C92    C93     1.405   .     A
C92    H109    1.082   .     S
C93    C94     1.406   .     A
C94    C95     1.399   .     A
C94    H110    1.082   .     S
C95    H111    1.084   .     S
C96    C97     1.404   .     A
C96    C101    1.406   .     A
C97    C98     1.398   .     A
C97    H112    1.083   .     S
C98    C99     1.407   .     A
C98    H113    1.083   .     S
C99    C100    1.403   .     A
C99    C102    1.484   .     S
C100   C101    1.396   .     A
C100   H114    1.083   .     S
C101   H115    1.082   .     S
C102   C103    1.406   .     A
C102   C107    1.403   .     A
C103   C104    1.399   .     A
C103   H116    1.082   .     S
C104   C105    1.405   .     A
C104   H117    1.083   .     S
C105   C106    1.405   .     A
C106   C107    1.395   .     A
C106   H118    1.083   .     S
C107   H119    1.082   .     S
C120   C125    1.408   .     A
C120   C126    1.487   .     S
C120   C121    1.402   1_545 A
C121   C122    1.393   .     A
C121   H138    1.083   .     S
C121   C120    1.402   1_565 A
C122   H139    1.081   .     S
C122   C123    1.406   1_565 A
C123   C124    1.408   .     A
C123   C122    1.406   1_545 A
C124   C125    1.406   .     A
C124   H140    1.083   .     S
C125   H141    1.084   .     S
C126   C127    1.404   .     A
C126   C131    1.406   1_545 A
C127   C128    1.401   .     A
C127   H142    1.083   .     S
C128   C129    1.409   .     A
C128   H143    1.083   .     S
C129   C132    1.489   .     S
C129   C130    1.404   1_545 A
C130   C131    1.396   .     A
C130   H144    1.082   .     S
C130   C129    1.404   1_565 A
C131   H145    1.083   .     S
C131   C126    1.406   1_565 A
C132   C137    1.402   .     A
C132   C133    1.411   1_545 A
C133   C134    1.405   .     A
C133   H146    1.082   .     S
C133   C132    1.411   1_565 A
C134   H147    1.083   .     S
C134   C135    1.403   1_565 A
C135   C136    1.408   .     A
C135   C134    1.403   1_545 A
C136   C137    1.392   .     A
C136   H148    1.082   .     S
C137   H149    1.083   .     S
C150   C151    1.409   .     A
C150   C156    1.487   .     S
C150   C155    1.405   1_556 A
C151   C152    1.399   .     A
C151   H168    1.082   .     S
C152   C153    1.402   .     A
C152   H169    1.082   .     S
C153   C154    1.405   1_556 A
C154   C155    1.397   .     A
C154   H170    1.082   .     S
C154   C153    1.405   1_554 A
C155   H171    1.083   .     S
C155   C150    1.405   1_554 A
C156   C161    1.405   .     A
C156   C157    1.406   1_556 A
C157   C158    1.400   .     A
C157   H172    1.083   .     S
C157   C156    1.406   1_554 A
C158   H173    1.080   .     S
C158   C159    1.405   1_554 A
C159   C160    1.404   .     A
C159   C158    1.405   1_556 A
C159   C162    1.485   1_556 S
C160   C161    1.395   .     A
C160   H174    1.084   .     S
C161   H175    1.080   .     S
C162   C167    1.408   .     A
C162   C159    1.485   1_554 S
C162   C163    1.405   1_554 A
C163   C164    1.395   .     A
C163   H176    1.084   .     S
C163   C162    1.405   1_556 A
C164   H177    1.083   .     S
C164   C165    1.406   1_556 A
C165   C166    1.406   .     A
C165   C164    1.406   1_554 A
C166   C167    1.402   .     A
C166   H178    1.082   .     S
C167   H179    1.084   .     S
C180   C181    1.405   .     A
C180   C185    1.405   .     A
C180   C186    1.483   .     S
C181   C182    1.395   .     A
C181   H198    1.083   .     S
C182   C183    1.404   .     A
C182   H199    1.082   .     S
C183   C184    1.405   .     A
C184   C185    1.398   .     A
C184   H200    1.083   1_556 S
C185   H201    1.082   1_556 S
C186   C191    1.405   .     A
C186   C187    1.405   1_556 A
C187   C188    1.400   .     A
C187   H202    1.083   .     S
C187   C186    1.405   1_554 A
C188   H203    1.081   .     S
C188   C189    1.405   1_554 A
C189   C190    1.402   .     A
C189   C188    1.405   1_556 A
C189   C192    1.482   1_556 S
C190   C191    1.394   .     A
C190   H204    1.083   .     S
C191   H205    1.081   .     S
C192   C197    1.403   .     A
C192   C189    1.482   1_554 S
C192   C193    1.406   1_554 A
C193   C194    1.397   .     A
C193   H206    1.082   .     S
C193   C192    1.406   1_556 A
C194   H207    1.083   .     S
C194   C195    1.403   1_556 A
C195   C196    1.408   .     A
C195   C194    1.403   1_554 A
C196   C197    1.396   .     A
C196   H208    1.084   .     S
C197   H209    1.084   .     S
H200   C184    1.083   1_554 S
H201   C185    1.082   1_554 S
C210   C216    1.502   .     S
C210   C211    1.414   1_556 A
C210   C215    1.410   1_556 A
C211   C212    1.403   .     A
C211   H228    1.082   .     S
C211   C210    1.414   1_554 A
C212   C213    1.404   .     A
C212   H229    1.083   .     S
C213   C214    1.404   .     A
C214   C215    1.395   .     A
C214   H230    1.084   .     S
C215   C210    1.410   1_554 A
C215   H231    1.082   1_554 S
C216   C217    1.413   .     A
C216   C221    1.411   .     A
C217   C218    1.398   .     A
C217   H232    1.081   .     S
C218   C219    1.402   .     A
C218   H233    1.084   .     S
C219   C220    1.404   .     A
C219   C222    1.484   .     S
C220   C221    1.401   .     A
C220   H234    1.083   .     S
C221   H235    1.081   .     S
C222   C223    1.404   .     A
C222   C227    1.405   .     A
C223   C224    1.399   .     A
C223   H236    1.083   .     S
C224   C225    1.406   .     A
C224   H237    1.083   .     S
C225   C226    1.405   .     A
C226   C227    1.400   .     A
C226   H238    1.083   .     S
C227   H239    1.083   .     S
H231   C215    1.082   1_556 S
C240   C245    1.405   .     A
C240   C246    1.482   .     S
C240   C241    1.404   1_554 A
C241   C242    1.397   .     A
C241   H258    1.082   .     S
C241   C240    1.404   1_556 A
C242   H259    1.082   .     S
C242   C243    1.404   1_556 A
C243   C244    1.406   .     A
C243   C242    1.404   1_554 A
C244   C245    1.396   .     A
C244   H260    1.083   .     S
C245   H261    1.083   .     S
C246   C247    1.405   .     A
C246   C251    1.404   1_554 A
C247   C248    1.396   .     A
C247   H262    1.083   .     S
C248   H263    1.083   .     S
C248   C249    1.405   1_554 A
C249   C250    1.406   .     A
C249   C252    1.484   .     S
C249   C248    1.405   1_556 A
C250   C251    1.396   .     A
C250   H264    1.083   .     S
C251   H265    1.083   .     S
C251   C246    1.404   1_556 A
C252   C253    1.407   .     A
C252   C257    1.403   1_556 A
C253   C254    1.401   .     A
C253   H266    1.082   .     S
C254   C255    1.402   .     A
C254   H267    1.083   .     S
C255   C256    1.402   1_556 A
C256   C257    1.392   .     A
C256   H268    1.083   .     S
C256   C255    1.402   1_554 A
C257   H269    1.082   .     S
C257   C252    1.403   1_554 A
C270   C275    1.409   .     A
C270   C276    1.493   .     S
C270   C271    1.407   1_556 A
C271   C272    1.395   .     A
C271   H288    1.081   .     S
C271   C270    1.407   1_554 A
C272   H289    1.084   .     S
C272   C273    1.399   1_554 A
C273   C274    1.403   .     A
C273   C272    1.399   1_556 A
C274   C275    1.402   .     A
C274   H290    1.084   .     S
C275   H291    1.081   .     S
C276   C277    1.409   .     A
C276   C281    1.408   1_556 A
C277   C278    1.403   .     A
C277   H292    1.082   .     S
C278   C279    1.405   .     A
C278   H293    1.083   .     S
C279   C280    1.402   1_556 A
C279   C282    1.483   1_556 S
C280   C281    1.395   .     A
C280   H294    1.083   .     S
C280   C279    1.402   1_554 A
C281   H295    1.082   .     S
C281   C276    1.408   1_554 A
C282   C283    1.404   .     A
C282   C279    1.483   1_554 S
C282   C287    1.404   1_554 A
C283   C284    1.400   .     A
C283   H296    1.083   .     S
C284   C285    1.405   .     A
C284   H297    1.082   .     S
C285   C286    1.407   1_554 A
C286   C287    1.400   .     A
C286   H298    1.082   .     S
C286   C285    1.407   1_556 A
C287   H299    1.083   .     S
C287   C282    1.404   1_556 A
C300   C301    1.406   .     A
C300   C305    1.405   1_554 A
C300   C306    1.482   1_554 S
C301   C302    1.400   .     A
C301   H318    1.084   .     S
C302   C303    1.406   .     A
C302   H319    1.083   .     S
C303   C304    1.404   1_554 A
C304   C305    1.392   .     A
C304   H320    1.083   .     S
C304   C303    1.404   1_556 A
C305   H321    1.084   .     S
C305   C300    1.405   1_556 A
C306   C307    1.407   .     A
C306   C300    1.482   1_556 S
C306   C311    1.403   1_556 A
C307   C308    1.395   .     A
C307   H322    1.082   .     S
C308   C309    1.400   .     A
C308   H323    1.083   .     S
C309   C312    1.477   .     S
C309   C310    1.407   1_556 A
C310   C311    1.396   .     A
C310   H324    1.083   .     S
C310   C309    1.407   1_554 A
C311   H325    1.082   .     S
C311   C306    1.403   1_554 A
C312   C313    1.397   .     A
C312   C317    1.409   .     A
C313   C314    1.388   .     A
C313   H326    1.085   1_556 S
C314   C315    1.410   .     A
C314   H327    1.081   1_556 S
C315   C316    1.404   .     A
C316   C317    1.404   .     A
C316   H328    1.083   .     S
C317   H329    1.083   .     S
H326   C313    1.085   1_554 S
H327   C314    1.081   1_554 S
