data_kag+N106+E191
_audit_creation_date              2025-01-21
_audit_creation_method            'Materials Studio'
_symmetry_space_group_name_H-M    'P1'
_symmetry_Int_Tables_number       1
_symmetry_cell_setting            triclinic
loop_
_symmetry_equiv_pos_as_xyz
  x,y,z
_cell_length_a                    37.8538
_cell_length_b                    39.2514
_cell_length_c                    16.7625
_cell_angle_alpha                 93.0630
_cell_angle_beta                  82.3027
_cell_angle_gamma                 125.2266
loop_
_atom_site_label
_atom_site_type_symbol
_atom_site_fract_x
_atom_site_fract_y
_atom_site_fract_z
_atom_site_U_iso_or_equiv
_atom_site_adp_type
_atom_site_occupancy
Y0     Y     0.52717   0.54849  -0.01718   0.00000  Uiso   1.00
Y1     Y     0.47894   0.45215   1.01847   0.00000  Uiso   1.00
O2     O     0.58290   0.54248  -0.05018   0.00000  Uiso   1.00
O3     O     0.51807   0.49459   0.90840   0.00000  Uiso   1.00
C4     C     0.45255   0.37572   1.06893   0.00000  Uiso   1.00
O5     O     0.45343   0.44160   0.89808   0.00000  Uiso   1.00
O6     O     0.56206   0.61768  -0.00088   0.00000  Uiso   1.00
O7     O     0.53320   0.59341   0.89324   0.00000  Uiso   1.00
O8     O     0.55146   0.48105   1.01508   0.00000  Uiso   1.00
O9     O     0.48804   0.50600   0.09285   0.00000  Uiso   1.00
O10    O     0.55288   0.55860   0.10293   0.00000  Uiso   1.00
O11    O     0.45482   0.51957  -0.01483   0.00000  Uiso   1.00
C12    C     0.58530   0.51459   0.97999   0.00000  Uiso   1.00
O13    O     0.42321   0.45830   1.05112   0.00000  Uiso   1.00
C14    C     0.48465   0.47240   0.86195   0.00000  Uiso   1.00
O15    O     0.44312   0.38264   1.00523   0.00000  Uiso   1.00
O16    O     0.47423   0.40824   0.10854   0.00000  Uiso   1.00
C17    C     0.55379   0.62538  -0.06519   0.00000  Uiso   1.00
C18    C     0.42093   0.48618   0.02048   0.00000  Uiso   1.00
C19    C     0.52158   0.52787   0.13907   0.00000  Uiso   1.00
Y20    Y     0.97796   0.52306  -0.00418   0.00000  Uiso   1.00
Y21    Y     0.03288   0.48634   1.00425   0.00000  Uiso   1.00
O22    O     0.04621   0.58116  -0.02926   0.00000  Uiso   1.00
O23    O     1.02800   0.52145   0.90842   0.00000  Uiso   1.00
C24    C     0.09049   0.46882   1.02414   0.00000  Uiso   1.00
O25    O     0.01391   0.46129   0.88102   0.00000  Uiso   1.00
O26    O     0.93691   0.54697   0.03468   0.00000  Uiso   1.00
O27    O     0.93576   0.52618   0.91668   0.00000  Uiso   1.00
O28    O     0.07837   0.55589   1.02428   0.00000  Uiso   1.00
O29    O    -0.01733   0.48796   0.09185   0.00000  Uiso   1.00
O30    O     0.99480   0.54720   0.12043   0.00000  Uiso   1.00
O31    O     0.93111   0.45298  -0.01782   0.00000  Uiso   1.00
C32    C     0.07893   0.58661   0.99924   0.00000  Uiso   1.00
O33    O     0.96521   0.42731   1.02615   0.00000  Uiso   1.00
C34    C     0.01464   0.48980   0.85458   0.00000  Uiso   1.00
O35    O     0.08192   0.47300   0.95690   0.00000  Uiso   1.00
O36    O     0.06817   0.47260   0.08236   0.00000  Uiso   1.00
C37    C     0.92063   0.54003  -0.03002   0.00000  Uiso   1.00
C38    C     0.93147   0.42211   0.00294   0.00000  Uiso   1.00
C39    C    -0.00511   0.51912   0.14650   0.00000  Uiso   1.00
Y40    Y     0.48292   0.02507   1.02280   0.00000  Uiso   1.00
Y41    Y     0.53046   0.98087  -0.02320   0.00000  Uiso   1.00
O42    O     0.42669   0.95797   1.04757   0.00000  Uiso   1.00
O43    O     0.49076  -0.01835   0.08991   0.00000  Uiso   1.00
C44    C     0.55755   0.93190  -0.07243   0.00000  Uiso   1.00
O45    O     0.55578   1.00129   0.09734   0.00000  Uiso   1.00
O46    O     0.44861   0.05515   1.00696   0.00000  Uiso   1.00
O47    O     0.47455   0.06508   0.11551   0.00000  Uiso   1.00
O48    O     0.45813   0.93069  -0.02677   0.00000  Uiso   1.00
O49    O     0.52271   1.02439   0.90973   0.00000  Uiso   1.00
O50    O     0.45776   0.00491   0.90208   0.00000  Uiso   1.00
O51    O     0.55516   0.07545   1.02547   0.00000  Uiso   1.00
C52    C     0.42418   0.92741   0.01002   0.00000  Uiso   1.00
O53    O     0.58698   0.04807  -0.04726   0.00000  Uiso   1.00
C54    C     0.52431  -0.00241   0.13566   0.00000  Uiso   1.00
O55    O     0.56372   0.94988  -0.00619   0.00000  Uiso   1.00
O56    O     0.53895   0.94083   0.88424   0.00000  Uiso   1.00
C57    C     0.45506   0.07329   1.07303   0.00000  Uiso   1.00
C58    C     0.58923   0.07876   0.98927   0.00000  Uiso   1.00
C59    C     0.48928   0.00869   0.86378   0.00000  Uiso   1.00
Ni60   Ni    0.50340   0.49971   0.50021   0.00000  Uiso   1.00
C61    C     0.51831   0.51855   0.22493   0.00000  Uiso   1.00
C62    C     0.47854   0.48616   0.26613   0.00000  Uiso   1.00
C63    C     0.47493   0.48045   0.34924   0.00000  Uiso   1.00
C64    C     0.54903   0.53683   0.35093   0.00000  Uiso   1.00
C65    C     0.55405   0.54371   0.26797   0.00000  Uiso   1.00
H66    H     0.42161   0.42996   0.76193   0.00000  Uiso   1.00
H67    H     0.55577   0.53448   0.76637   0.00000  Uiso   1.00
H68    H     0.56223   0.54419   0.61923   0.00000  Uiso   1.00
H69    H     0.43094   0.44197   0.61516   0.00000  Uiso   1.00
N70    N     0.49697   0.49345   0.61058   0.00000  Uiso   1.00
N71    N     0.50978   0.50598   0.38985   0.00000  Uiso   1.00
H72    H     0.45026   0.46624   0.23488   0.00000  Uiso   1.00
H73    H     0.44409   0.45612   0.38175   0.00000  Uiso   1.00
H74    H     0.57623   0.55660   0.38470   0.00000  Uiso   1.00
H75    H     0.58526   0.56900   0.23814   0.00000  Uiso   1.00
C76    C     0.48809   0.48138   0.77580   0.00000  Uiso   1.00
C77    C     0.52773   0.51407   0.73480   0.00000  Uiso   1.00
C78    C     0.53152   0.51955   0.65154   0.00000  Uiso   1.00
C79    C     0.45788   0.46220   0.64923   0.00000  Uiso   1.00
C80    C     0.45268   0.45555   0.73232   0.00000  Uiso   1.00
Ni81   Ni    0.00434   0.50429   0.50077   0.00000  Uiso   1.00
C82    C     1.00753   0.49197   0.77129   0.00000  Uiso   1.00
C83    C     1.01659   0.52892   0.73949   0.00000  Uiso   1.00
C84    C     1.01445   0.53176   0.65767   0.00000  Uiso   1.00
C85    C    -0.00683   0.46226   0.63950   0.00000  Uiso   1.00
C86    C    -0.00502   0.45810   0.72073   0.00000  Uiso   1.00
H87    H     1.01944   0.57904   0.25899   0.00000  Uiso   1.00
H88    H    -0.01557   0.45375   0.22376   0.00000  Uiso   1.00
H89    H    -0.01190   0.44877   0.36866   0.00000  Uiso   1.00
H90    H     1.02242   0.57138   0.40259   0.00000  Uiso   1.00
N91    N     0.00520   0.50975   0.39202   0.00000  Uiso   1.00
N92    N     0.00352   0.49887   0.60951   0.00000  Uiso   1.00
H93    H     1.02651   0.55569   0.77679   0.00000  Uiso   1.00
H94    H     1.02244   0.56049   0.63210   0.00000  Uiso   1.00
H95    H    -0.01556   0.43660   0.59977   0.00000  Uiso   1.00
H96    H    -0.01225   0.42909   0.74329   0.00000  Uiso   1.00
C97    C     0.00159   0.51683   0.23007   0.00000  Uiso   1.00
C98    C    -0.00656   0.48020   0.26148   0.00000  Uiso   1.00
C99    C    -0.00465   0.47726   0.34340   0.00000  Uiso   1.00
C100   C     1.01457   0.54604   0.36248   0.00000  Uiso   1.00
C101   C     1.01295   0.55028   0.28119   0.00000  Uiso   1.00
Ni102  Ni    0.50727   0.00404   0.49956   0.00000  Uiso   1.00
C103   C     0.52114   0.00405   0.22276   0.00000  Uiso   1.00
C104   C     0.48095  -0.00925   0.26718   0.00000  Uiso   1.00
C105   C     0.47763  -0.00787   0.35115   0.00000  Uiso   1.00
C106   C     0.55285   1.02109   0.34723   0.00000  Uiso   1.00
C107   C     0.55761   1.02016   0.26340   0.00000  Uiso   1.00
H108   H     0.42497  -0.02311   0.76781   0.00000  Uiso   1.00
H109   H     0.56163   1.02844   0.76211   0.00000  Uiso   1.00
H110   H     0.56778   1.02667   0.61332   0.00000  Uiso   1.00
H111   H     0.43409  -0.02382   0.61943   0.00000  Uiso   1.00
N112   N     0.50127   0.00154   0.61002   0.00000  Uiso   1.00
N113   N     0.51318   0.00646   0.38911   0.00000  Uiso   1.00
H114   H     0.45217  -0.02197   0.23761   0.00000  Uiso   1.00
H115   H     0.44650  -0.01922   0.38629   0.00000  Uiso   1.00
H116   H     0.58053   1.03245   0.37922   0.00000  Uiso   1.00
H117   H     0.58916   1.03075   0.23088   0.00000  Uiso   1.00
C118   C     0.49274   1.00281   0.77649   0.00000  Uiso   1.00
C119   C     0.53300   1.01615   0.73229   0.00000  Uiso   1.00
C120   C     0.53661   1.01535   0.64825   0.00000  Uiso   1.00
C121   C     0.46157  -0.01297   0.65165   0.00000  Uiso   1.00
C122   C     0.45653  -0.01262   0.73550   0.00000  Uiso   1.00
Ni123  Ni    0.24706   0.46469   1.04061   0.00000  Uiso   1.00
C124   C     0.37847   0.48063   1.02752   0.00000  Uiso   1.00
C125   C     0.37588   0.51157   0.99654   0.00000  Uiso   1.00
C126   C     0.33574   0.50596   1.00270   0.00000  Uiso   1.00
C127   C     0.30049   0.44026   0.06934   0.00000  Uiso   1.00
C128   C     0.34011   0.44459   0.06459   0.00000  Uiso   1.00
H129   H     0.13548   0.45453   0.90380   0.00000  Uiso   1.00
H130   H     0.12366   0.46961   0.16117   0.00000  Uiso   1.00
H131   H     0.18754   0.46747   0.16575   0.00000  Uiso   1.00
H132   H     0.19854   0.45263   0.91407   0.00000  Uiso   1.00
N133   N     0.19564   0.45964   0.04019   0.00000  Uiso   1.00
N134   N     0.29916   0.47079   1.03846   0.00000  Uiso   1.00
H135   H     0.40453   0.53982   0.96742   0.00000  Uiso   1.00
H136   H     0.33358   0.52956   0.97823   0.00000  Uiso   1.00
H137   H     0.27077   0.41244   0.09701   0.00000  Uiso   1.00
H138   H     0.34064   0.41995   0.08912   0.00000  Uiso   1.00
C139   C     0.12454   0.46227   0.03191   0.00000  Uiso   1.00
C140   C     0.13897   0.46499   0.10640   0.00000  Uiso   1.00
C141   C     0.17506   0.46376   0.10916   0.00000  Uiso   1.00
C142   C     0.18122   0.45541   0.96794   0.00000  Uiso   1.00
C143   C     0.14558   0.45662   0.96240   0.00000  Uiso   1.00
Ni144  Ni    0.76400   0.24761  -0.00659   0.00000  Uiso   1.00
C145   C     0.89125   0.37941   0.00057   0.00000  Uiso   1.00
C146   C     0.89010   0.34410   0.01796   0.00000  Uiso   1.00
C147   C     0.85151   0.30424   0.01481   0.00000  Uiso   1.00
C148   C     0.81559   0.33327   0.97789   0.00000  Uiso   1.00
C149   C     0.85330   0.37353   0.98020   0.00000  Uiso   1.00
H150   H     0.60552   0.15162   0.05175   0.00000  Uiso   1.00
H151   H     0.67047   0.09878   0.92742   0.00000  Uiso   1.00
H152   H     0.74074   0.16751   0.93105   0.00000  Uiso   1.00
H153   H     0.67693   0.21872   0.05237   0.00000  Uiso   1.00
N154   N     0.71193   0.19606   0.99216   0.00000  Uiso   1.00
N155   N     0.81536   0.29972  -0.00498   0.00000  Uiso   1.00
H156   H     0.91862   0.34720   0.03377   0.00000  Uiso   1.00
H157   H     0.85030   0.27693   0.02847   0.00000  Uiso   1.00
H158   H     0.78623   0.32866   0.96284   0.00000  Uiso   1.00
H159   H     0.85259   0.39975   0.96648   0.00000  Uiso   1.00
C160   C     0.63204   0.11950   0.98928   0.00000  Uiso   1.00
C161   C     0.67086   0.12453   0.95518   0.00000  Uiso   1.00
C162   C     0.71075   0.16338   0.95732   0.00000  Uiso   1.00
C163   C     0.67494   0.19207   0.02545   0.00000  Uiso   1.00
C164   C     0.63451   0.15396   0.02478   0.00000  Uiso   1.00
Ni165  Ni    0.76049   0.53842  -0.04404   0.00000  Uiso   1.00
C166   C     0.88580   0.54522  -0.03964   0.00000  Uiso   1.00
C167   C     0.87130   0.56091   0.02360   0.00000  Uiso   1.00
C168   C     0.83447   0.56035   0.01884   0.00000  Uiso   1.00
C169   C     0.82695   0.53076   0.88982   0.00000  Uiso   1.00
C170   C     0.86382   0.53083   0.89197   0.00000  Uiso   1.00
H171   H     0.66492   0.58090  -0.08996   0.00000  Uiso   1.00
H172   H     0.60280   0.46166   1.03317   0.00000  Uiso   1.00
H173   H     0.67430   0.47280   1.02111   0.00000  Uiso   1.00
H174   H     0.73519   0.58926  -0.09907   0.00000  Uiso   1.00
N175   N     0.70781   0.53137   0.96036   0.00000  Uiso   1.00
N176   N     0.81274   0.54476  -0.04664   0.00000  Uiso   1.00
H177   H     0.88730   0.57209   0.07749   0.00000  Uiso   1.00
H178   H     0.82214   0.57092   0.06873   0.00000  Uiso   1.00
H179   H     0.80874   0.51817   0.83880   0.00000  Uiso   1.00
H180   H     0.87390   0.51822   0.84231   0.00000  Uiso   1.00
C181   C     0.62794   0.52049   0.97256   0.00000  Uiso   1.00
C182   C     0.63117   0.48996   1.00361   0.00000  Uiso   1.00
C183   C     0.67161   0.49609   0.99681   0.00000  Uiso   1.00
C184   C     0.70579   0.56143  -0.07062   0.00000  Uiso   1.00
C185   C     0.66592   0.55659  -0.06521   0.00000  Uiso   1.00
Ni186  Ni    0.24782   0.76012   1.00623   0.00000  Uiso   1.00
C187   C     0.38111   0.88703   0.00932   0.00000  Uiso   1.00
C188   C     0.34340   0.88085   0.05322   0.00000  Uiso   1.00
C189   C     0.30316   0.84242   0.05092   0.00000  Uiso   1.00
C190   C     0.33633   0.81642   0.96286   0.00000  Uiso   1.00
C191   C     0.37714   0.85420   0.96354   0.00000  Uiso   1.00
H192   H     0.10020   0.65934  -0.06964   0.00000  Uiso   1.00
H193   H     0.14908   0.61094   1.07570   0.00000  Uiso   1.00
H194   H     0.21635   0.68164   1.07701   0.00000  Uiso   1.00
H195   H     0.16904   0.72926  -0.06509   0.00000  Uiso   1.00
N196   N     0.19566   0.70854   1.00634   0.00000  Uiso   1.00
N197   N     0.30048   0.81125   0.00621   0.00000  Uiso   1.00
H198   H     0.34498   0.90533   0.08924   0.00000  Uiso   1.00
H199   H     0.27407   0.83731   0.08516   0.00000  Uiso   1.00
H200   H     0.33317   0.79097   0.92807   0.00000  Uiso   1.00
H201   H     0.40527   0.85762   0.92849   0.00000  Uiso   1.00
C202   C     0.11902   0.62927   1.00255   0.00000  Uiso   1.00
C203   C     0.15233   0.63621   1.04436   0.00000  Uiso   1.00
C204   C     0.19049   0.67626   1.04550   0.00000  Uiso   1.00
C205   C     0.16392   0.70300  -0.03407   0.00000  Uiso   1.00
C206   C     0.12498   0.66335  -0.03653   0.00000  Uiso   1.00
Ni207  Ni    0.57775   0.78969  -0.11410   0.00000  Uiso   1.00
C208   C     0.56865   0.90184  -0.09307   0.00000  Uiso   1.00
C209   C     0.59221   0.89698  -0.04245   0.00000  Uiso   1.00
C210   C     0.59672   0.86419  -0.05393   0.00000  Uiso   1.00
C211   C     0.55703   0.84191   0.83393   0.00000  Uiso   1.00
C212   C     0.55192   0.87460   0.84299   0.00000  Uiso   1.00
H213   H     0.60388   0.69796   0.01157   0.00000  Uiso   1.00
H214   H     0.52776   0.64643   0.81236   0.00000  Uiso   1.00
H215   H     0.53852   0.71410   0.79350   0.00000  Uiso   1.00
H216   H     0.61312   0.76423  -0.01191   0.00000  Uiso   1.00
N217   N     0.57659   0.74225   0.88949   0.00000  Uiso   1.00
N218   N     0.57840   0.83696  -0.11373   0.00000  Uiso   1.00
H219   H     0.60549   0.91728   0.00769   0.00000  Uiso   1.00
H220   H     0.61313   0.85919  -0.01277   0.00000  Uiso   1.00
H221   H     0.54239   0.81950   0.78736   0.00000  Uiso   1.00
H222   H     0.53330   0.87726   0.80316   0.00000  Uiso   1.00
C223   C     0.56499   0.66684   0.91371   0.00000  Uiso   1.00
C224   C     0.54751   0.67210   0.85049   0.00000  Uiso   1.00
C225   C     0.55358   0.71036   0.83960   0.00000  Uiso   1.00
C226   C     0.59542   0.73846  -0.05119   0.00000  Uiso   1.00
C227   C     0.59000   0.70085  -0.03795   0.00000  Uiso   1.00
Ni228  Ni    0.43067   0.21268   1.11835   0.00000  Uiso   1.00
C229   C     0.44158   0.33453   1.09129   0.00000  Uiso   1.00
C230   C     0.41429   0.29952   1.04691   0.00000  Uiso   1.00
C231   C     0.40927   0.26211   1.06038   0.00000  Uiso   1.00
C232   C     0.45595   0.29242   0.16228   0.00000  Uiso   1.00
C233   C     0.46166   0.33047   0.15116   0.00000  Uiso   1.00
H234   H     0.40434   0.08555   0.99633   0.00000  Uiso   1.00
H235   H     0.48015   0.12864   0.19604   0.00000  Uiso   1.00
H236   H     0.46917   0.18514   0.21341   0.00000  Uiso   1.00
H237   H     0.39488   0.14249   1.01829   0.00000  Uiso   1.00
N238   N     0.43127   0.16611   0.11701   0.00000  Uiso   1.00
N239   N     0.43074   0.25954   1.11598   0.00000  Uiso   1.00
H240   H     0.39834   0.30150   1.00011   0.00000  Uiso   1.00
H241   H     0.38984   0.23556   1.02383   0.00000  Uiso   1.00
H242   H     0.47313   0.28963   0.20529   0.00000  Uiso   1.00
H243   H     0.48325   0.35694   0.18605   0.00000  Uiso   1.00
C244   C     0.44314   0.10266   0.09455   0.00000  Uiso   1.00
C245   C     0.46035   0.13036   0.15765   0.00000  Uiso   1.00
C246   C     0.45416   0.16231   0.16764   0.00000  Uiso   1.00
C247   C     0.41249   0.13839   1.05812   0.00000  Uiso   1.00
C248   C     0.41805   0.10629   1.04574   0.00000  Uiso   1.00
loop_
_geom_bond_atom_site_label_1
_geom_bond_atom_site_label_2
_geom_bond_distance
_geom_bond_site_symmetry_2
_ccdc_geom_bond_type
Y0     O2      2.249   .     S
Y0     O6      2.253   .     S
Y0     O9      2.264   .     S
Y0     O10     2.270   .     S
Y0     O11     2.276   .     S
Y0     O3      2.268   1_554 S
Y0     O7      2.268   1_554 S
Y1     O3      2.263   .     S
Y1     O5      2.269   .     S
Y1     O8      2.280   .     S
Y1     O13     2.252   .     S
Y1     O15     2.254   .     S
Y1     O9      2.266   1_556 S
Y1     O16     2.266   1_556 S
O2     C12     1.284   1_554 A
O3     C14     1.373   .     S
O3     Y0      2.268   1_556 S
C4     O15     1.259   .     A
C4     C229    1.475   .     S
C4     O16     1.261   1_556 A
O5     C14     1.210   .     D
O6     C17     1.259   .     A
O7     Y0      2.268   1_556 S
O7     C17     1.261   1_556 A
O8     C12     1.287   .     A
O9     C19     1.373   .     S
O9     Y1      2.266   1_554 S
O10    C19     1.209   .     D
O11    C18     1.286   .     A
C12    C181    1.481   .     S
C12    O2      1.284   1_556 A
O13    C18     1.284   1_556 A
C14    C76     1.476   .     S
O16    Y1      2.266   1_554 S
O16    C4      1.261   1_554 A
C17    O7      1.261   1_554 A
C17    C223    1.476   1_554 S
C18    O13     1.284   1_554 A
C18    C124    1.481   1_554 S
C19    C61     1.475   .     S
Y20    O26     2.251   .     S
Y20    O30     2.262   .     S
Y20    O31     2.275   .     S
Y20    O22     2.251   1_655 S
Y20    O23     2.263   1_554 S
Y20    O27     2.267   1_554 S
Y20    O29     2.263   1_655 S
Y21    O25     2.262   .     S
Y21    O28     2.273   .     S
Y21    O35     2.243   .     S
Y21    O23     2.263   1_455 S
Y21    O29     2.270   1_556 S
Y21    O33     2.249   1_455 S
Y21    O36     2.273   1_556 S
O22    Y20     2.251   1_455 S
O22    C32     1.284   1_554 A
O23    Y20     2.263   1_556 S
O23    Y21     2.263   1_655 S
O23    C34     1.375   1_655 S
C24    O35     1.258   .     A
C24    O36     1.263   1_556 A
C24    C139    1.475   1_556 S
O25    C34     1.210   .     D
O26    C37     1.259   .     A
O27    Y20     2.267   1_556 S
O27    C37     1.262   1_556 A
O28    C32     1.285   .     A
O29    C39     1.375   .     S
O29    Y20     2.263   1_455 S
O29    Y21     2.270   1_554 S
O30    C39     1.209   1_655 D
O31    C38     1.286   .     A
C32    C202    1.480   .     S
C32    O22     1.284   1_556 A
O33    Y21     2.249   1_655 S
O33    C38     1.284   1_556 A
C34    O23     1.375   1_455 S
C34    C82     1.473   1_455 S
O36    Y21     2.273   1_554 S
O36    C24     1.263   1_554 A
C37    C166    1.475   .     S
C37    O27     1.262   1_554 A
C38    C145    1.481   .     S
C38    O33     1.284   1_554 A
C39    C97     1.473   .     S
C39    O30     1.209   1_455 D
Y40    O46     2.246   .     S
Y40    O50     2.259   .     S
Y40    O51     2.275   .     S
Y40    O42     2.248   1_545 S
Y40    O43     2.266   1_556 S
Y40    O47     2.272   1_556 S
Y40    O49     2.267   1_545 S
Y41    O45     2.259   .     S
Y41    O48     2.278   .     S
Y41    O55     2.246   .     S
Y41    O43     2.266   1_565 S
Y41    O49     2.267   1_554 S
Y41    O53     2.252   1_565 S
Y41    O56     2.274   1_554 S
O42    Y40     2.248   1_565 S
O42    C52     1.284   1_556 A
O43    C54     1.373   .     S
O43    Y40     2.266   1_554 S
O43    Y41     2.266   1_545 S
C44    O55     1.257   .     A
C44    C208    1.476   .     S
C44    O56     1.263   1_554 A
O45    C54     1.208   1_565 D
O46    C57     1.257   .     A
O47    Y40     2.272   1_554 S
O47    C57     1.263   1_554 A
O48    C52     1.286   .     A
O49    Y40     2.267   1_565 S
O49    Y41     2.267   1_556 S
O49    C59     1.373   1_565 S
O50    C59     1.208   .     D
O51    C58     1.286   .     A
C52    C187    1.481   .     S
C52    O42     1.284   1_554 A
O53    Y41     2.252   1_545 S
O53    C58     1.285   1_554 A
C54    C103    1.469   .     S
C54    O45     1.208   1_545 D
O56    Y41     2.274   1_556 S
O56    C44     1.263   1_556 A
C57    O47     1.263   1_556 A
C57    C244    1.475   1_556 S
C58    C160    1.481   .     S
C58    O53     1.285   1_556 A
C59    O49     1.373   1_545 S
C59    C118    1.469   1_545 S
Ni60   N70     1.844   .     S
Ni60   N71     1.844   .     S
C61    C62     1.402   .     A
C61    C65     1.404   .     A
C62    C63     1.399   .     A
C62    H72     1.083   .     S
C63    N71     1.360   .     A
C63    H73     1.082   .     S
C64    C65     1.398   .     A
C64    N71     1.360   .     A
C64    H74     1.082   .     S
C65    H75     1.083   .     S
H66    C80     1.083   .     S
H67    C77     1.083   .     S
H68    C78     1.082   .     S
H69    C79     1.082   .     S
N70    C78     1.360   .     A
N70    C79     1.360   .     A
C76    C77     1.403   .     A
C76    C80     1.404   .     A
C77    C78     1.399   .     A
C79    C80     1.397   .     A
Ni81   N91     1.841   .     S
Ni81   N92     1.841   .     S
C82    C83     1.402   .     A
C82    C86     1.404   1_655 A
C82    C34     1.473   1_655 S
C83    C84     1.399   .     A
C83    H93     1.083   .     S
C84    H94     1.082   .     S
C84    N92     1.361   1_655 A
C85    C86     1.395   .     A
C85    N92     1.359   .     A
C85    H95     1.082   .     S
C86    H96     1.083   .     S
C86    C82     1.404   1_455 A
H87    C101    1.083   .     S
H88    C98     1.083   .     S
H89    C99     1.082   .     S
H90    C100    1.082   .     S
N91    C99     1.361   .     A
N91    C100    1.359   1_455 A
N92    C84     1.361   1_455 A
C97    C98     1.402   .     A
C97    C101    1.404   1_455 A
C98    C99     1.399   .     A
C100   C101    1.395   .     A
C100   N91     1.359   1_655 A
C101   C97     1.404   1_655 A
Ni102  N112    1.836   .     S
Ni102  N113    1.836   .     S
C103   C104    1.401   .     A
C103   C107    1.403   1_545 A
C104   C105    1.397   .     A
C104   H114    1.083   .     S
C105   N113    1.360   .     A
C105   H115    1.082   .     S
C106   C107    1.394   .     A
C106   H116    1.082   .     S
C106   N113    1.358   1_565 A
C107   H117    1.083   .     S
C107   C103    1.403   1_565 A
H108   C122    1.083   .     S
H109   C119    1.083   .     S
H110   C120    1.082   .     S
H111   C121    1.082   .     S
N112   C121    1.358   .     A
N112   C120    1.360   1_545 A
N113   C106    1.358   1_545 A
C118   C119    1.402   .     A
C118   C122    1.403   1_565 A
C118   C59     1.469   1_565 S
C119   C120    1.397   .     A
C120   N112    1.360   1_565 A
C121   C122    1.393   .     A
C122   C118    1.403   1_545 A
Ni123  N134    1.840   .     S
Ni123  N133    1.840   1_556 S
C124   C125    1.405   .     A
C124   C128    1.406   1_556 A
C124   C18     1.481   1_556 S
C125   C126    1.394   .     A
C125   H135    1.083   .     S
C126   N134    1.358   .     A
C126   H136    1.082   .     S
C127   C128    1.400   .     A
C127   H137    1.082   .     S
C127   N134    1.360   1_554 A
C128   H138    1.083   .     S
C128   C124    1.406   1_554 A
H129   C143    1.083   .     S
H130   C140    1.083   .     S
H131   C141    1.082   .     S
H132   C142    1.082   .     S
N133   C141    1.361   .     A
N133   Ni123   1.840   1_554 S
N133   C142    1.358   1_554 A
N134   C127    1.360   1_556 A
C139   C140    1.404   .     A
C139   C143    1.403   1_554 A
C139   C24     1.475   1_554 S
C140   C141    1.401   .     A
C142   C143    1.393   .     A
C142   N133    1.358   1_556 A
C143   C139    1.403   1_556 A
Ni144  N155    1.840   .     S
Ni144  N154    1.840   1_554 S
C145   C146    1.406   .     A
C145   C149    1.405   1_554 A
C146   C147    1.400   .     A
C146   H156    1.083   .     S
C147   N155    1.360   .     A
C147   H157    1.082   .     S
C148   C149    1.394   .     A
C148   H158    1.082   .     S
C148   N155    1.358   1_556 A
C149   H159    1.083   .     S
C149   C145    1.405   1_556 A
H150   C164    1.083   .     S
H151   C161    1.083   .     S
H152   C162    1.082   .     S
H153   C163    1.082   .     S
N154   C162    1.360   .     A
N154   Ni144   1.840   1_556 S
N154   C163    1.358   1_556 A
N155   C148    1.358   1_554 A
C160   C161    1.406   .     A
C160   C164    1.405   1_556 A
C161   C162    1.400   .     A
C163   C164    1.394   .     A
C163   N154    1.358   1_554 A
C164   C160    1.405   1_554 A
Ni165  N176    1.840   .     S
Ni165  N175    1.840   1_554 S
C166   C167    1.403   .     A
C166   C170    1.404   1_554 A
C167   C168    1.395   .     A
C167   H177    1.083   .     S
C168   N176    1.358   .     A
C168   H178    1.082   .     S
C169   C170    1.399   .     A
C169   H179    1.082   .     S
C169   N176    1.360   1_556 A
C170   H180    1.083   .     S
C170   C166    1.404   1_556 A
H171   C185    1.083   .     S
H172   C182    1.083   .     S
H173   C183    1.082   .     S
H174   C184    1.082   .     S
N175   C183    1.358   .     A
N175   Ni165   1.840   1_556 S
N175   C184    1.359   1_556 A
N176   C169    1.360   1_554 A
C181   C182    1.405   .     A
C181   C185    1.406   1_556 A
C182   C183    1.395   .     A
C184   C185    1.399   .     A
C184   N175    1.359   1_554 A
C185   C181    1.406   1_554 A
Ni186  N196    1.840   .     S
Ni186  N197    1.840   1_556 S
C187   C188    1.406   .     A
C187   C191    1.405   1_554 A
C188   C189    1.399   .     A
C188   H198    1.083   .     S
C189   N197    1.360   .     A
C189   H199    1.082   .     S
C190   C191    1.395   .     A
C190   H200    1.082   .     S
C190   N197    1.358   1_556 A
C191   H201    1.083   .     S
C191   C187    1.405   1_556 A
H192   C206    1.083   .     S
H193   C203    1.083   .     S
H194   C204    1.082   .     S
H195   C205    1.082   .     S
N196   C204    1.358   .     A
N196   C205    1.360   1_556 A
N197   Ni186   1.840   1_554 S
N197   C190    1.358   1_554 A
C202   C203    1.405   .     A
C202   C206    1.405   1_556 A
C203   C204    1.394   .     A
C205   C206    1.400   .     A
C205   N196    1.360   1_554 A
C206   C202    1.405   1_554 A
Ni207  N218    1.841   .     S
Ni207  N217    1.841   1_554 S
C208   C209    1.403   .     A
C208   C212    1.404   1_554 A
C209   C210    1.393   .     A
C209   H219    1.083   .     S
C210   N218    1.358   .     A
C210   H220    1.082   .     S
C211   C212    1.402   .     A
C211   H221    1.082   .     S
C211   N218    1.361   1_556 A
C212   H222    1.083   .     S
C212   C208    1.404   1_556 A
H213   C227    1.083   .     S
H214   C224    1.083   .     S
H215   C225    1.082   .     S
H216   C226    1.082   .     S
N217   C225    1.360   .     A
N217   Ni207   1.841   1_556 S
N217   C226    1.359   1_556 A
N218   C211    1.361   1_554 A
C223   C224    1.404   .     A
C223   C227    1.403   1_556 A
C223   C17     1.476   1_556 S
C224   C225    1.400   .     A
C226   C227    1.394   .     A
C226   N217    1.359   1_554 A
C227   C223    1.403   1_554 A
Ni228  N239    1.840   .     S
Ni228  N238    1.840   1_556 S
C229   C230    1.403   .     A
C229   C233    1.404   1_556 A
C230   C231    1.395   .     A
C230   H240    1.083   .     S
C231   N239    1.359   .     A
C231   H241    1.082   .     S
C232   C233    1.399   .     A
C232   H242    1.082   .     S
C232   N239    1.360   1_554 A
C233   H243    1.083   .     S
C233   C229    1.404   1_554 A
H234   C248    1.083   .     S
H235   C245    1.083   .     S
H236   C246    1.082   .     S
H237   C247    1.082   .     S
N238   C246    1.361   .     A
N238   Ni228   1.840   1_554 S
N238   C247    1.358   1_554 A
N239   C232    1.360   1_556 A
C244   C245    1.403   .     A
C244   C248    1.403   1_554 A
C244   C57     1.475   1_554 S
C245   C246    1.401   .     A
C247   C248    1.393   .     A
C247   N238    1.358   1_556 A
C248   C244    1.403   1_556 A
