data_kag+N139+E8
_audit_creation_date              2025-01-21
_audit_creation_method            'Materials Studio'
_symmetry_space_group_name_H-M    'P1'
_symmetry_Int_Tables_number       1
_symmetry_cell_setting            triclinic
loop_
_symmetry_equiv_pos_as_xyz
  x,y,z
_cell_length_a                    31.2730
_cell_length_b                    22.1377
_cell_length_c                    16.5849
_cell_angle_alpha                 78.3887
_cell_angle_beta                  97.4060
_cell_angle_gamma                 124.5493
loop_
_atom_site_label
_atom_site_type_symbol
_atom_site_fract_x
_atom_site_fract_y
_atom_site_fract_z
_atom_site_U_iso_or_equiv
_atom_site_adp_type
_atom_site_occupancy
C0     C     0.56115   0.55625   0.70640   0.00000  Uiso   1.00
Sm1    Sm    0.45780   0.50736   0.07985   0.00000  Uiso   1.00
Sm2    Sm    0.57543   0.54345   0.86994   0.00000  Uiso   1.00
C3     C     0.50841   0.42645   0.04431   0.00000  Uiso   1.00
C4     C     0.64561   0.51050   0.90658   0.00000  Uiso   1.00
O5     O     0.51335   0.55781   0.18547   0.00000  Uiso   1.00
O6     O     0.43398   0.47142   0.21155   0.00000  Uiso   1.00
O7     O     0.56700   0.63663   0.88417   0.00000  Uiso   1.00
O8     O     0.49459   0.55772  -0.04849   0.00000  Uiso   1.00
O9     O     0.37768   0.46712   1.02622   0.00000  Uiso   1.00
O10    O     0.42224   0.57228   0.06980   0.00000  Uiso   1.00
O11    O     0.52338   0.51622   0.75648   0.00000  Uiso   1.00
O12    O     0.60557   0.59317   0.74173   0.00000  Uiso   1.00
O13    O     0.47583   0.41906   0.09079   0.00000  Uiso   1.00
O14    O     0.52766   0.48185   0.98702   0.00000  Uiso   1.00
O15    O     0.64968   0.56493  -0.06863   0.00000  Uiso   1.00
O16    O     0.60315   0.47002   0.86786   0.00000  Uiso   1.00
C17    C     0.47832   0.51829   0.24015   0.00000  Uiso   1.00
C18    C     0.53030   0.62416   0.92517   0.00000  Uiso   1.00
C19    C     0.37889   0.52282   0.04059   0.00000  Uiso   1.00
C20    C     1.03496   0.48380   0.28089   0.00000  Uiso   1.00
Sm21   Sm    0.95740   0.47812   0.86629   0.00000  Uiso   1.00
Sm22   Sm    0.04539   0.49210   0.12649   0.00000  Uiso   1.00
C23    C     0.06513   0.57993   0.94238   0.00000  Uiso   1.00
C24    C     0.13647   0.52475   0.09708   0.00000  Uiso   1.00
O25    O     0.97382   0.43927   0.76954   0.00000  Uiso   1.00
O26    O    -0.04677   0.52030   0.73609   0.00000  Uiso   1.00
O27    O     0.95988   0.39933   0.12235   0.00000  Uiso   1.00
O28    O     0.96690   0.42251   0.98970   0.00000  Uiso   1.00
O29    O     0.91088   0.51029  -0.08749   0.00000  Uiso   1.00
O30    O     0.87078   0.40582   0.86372   0.00000  Uiso   1.00
O31    O     0.02701   0.52608   0.22546   0.00000  Uiso   1.00
O32    O     1.05004   0.44771   0.25606   0.00000  Uiso   1.00
O33    O     0.04353   0.56894   0.87148   0.00000  Uiso   1.00
O34    O     0.03588   0.55107   0.00430   0.00000  Uiso   1.00
O35    O     0.09456   0.46745   1.07425   0.00000  Uiso   1.00
O36    O     0.13150   0.56807   0.13006   0.00000  Uiso   1.00
C37    C    -0.03351   0.48146   0.71283   0.00000  Uiso   1.00
C38    C     0.93782   0.39163   0.05181   0.00000  Uiso   1.00
C39    C     0.86797   0.45335   0.89122   0.00000  Uiso   1.00
C40    C     0.46187  -0.04253   0.29785   0.00000  Uiso   1.00
Sm41   Sm    0.55150   0.04506   0.91209   0.00000  Uiso   1.00
Sm42   Sm    0.43275   0.93629   0.14293   0.00000  Uiso   1.00
C43    C     0.45763   0.88837   1.00230   0.00000  Uiso   1.00
C44    C     0.33678   0.87919   0.09307   0.00000  Uiso   1.00
O45    O     0.50986   0.05873   0.79784   0.00000  Uiso   1.00
O46    O     0.53837   0.98887   0.80416   0.00000  Uiso   1.00
O47    O     0.51135   0.02788   0.09000   0.00000  Uiso   1.00
O48    O     0.55642   0.12034   0.99213   0.00000  Uiso   1.00
O49    O     0.61540   0.04438  -0.01246   0.00000  Uiso   1.00
O50    O     0.63370   0.12884   0.87937   0.00000  Uiso   1.00
O51    O     0.46899   0.91813   0.26157   0.00000  Uiso   1.00
O52    O     0.44027  -0.01217   0.25261   0.00000  Uiso   1.00
O53    O     0.47611   0.95583   0.97380   0.00000  Uiso   1.00
O54    O     0.43137   0.86080   0.06729   0.00000  Uiso   1.00
O55    O     0.37432   0.93948   1.05436   0.00000  Uiso   1.00
O56    O     0.34864   0.85331   0.16242   0.00000  Uiso   1.00
C57    C     0.51538   1.01805   0.76097   0.00000  Uiso   1.00
C58    C     0.52959   0.09473   0.05685   0.00000  Uiso   1.00
C59    C     0.65022   0.10393   0.94343   0.00000  Uiso   1.00
C60    C     0.54173   0.55112   0.44853   0.00000  Uiso   1.00
C61    C     0.50103   0.53482   0.49537   0.00000  Uiso   1.00
N62    N     0.45478   0.51588   0.45786   0.00000  Uiso   1.00
C63    C     0.44694   0.51132   0.37596   0.00000  Uiso   1.00
C64    C     0.48721   0.52599   0.32879   0.00000  Uiso   1.00
N65    N     0.53406   0.54669   0.36637   0.00000  Uiso   1.00
N66    N     0.58784   0.56946   0.48630   0.00000  Uiso   1.00
C67    C     0.59537   0.57280   0.56848   0.00000  Uiso   1.00
C68    C     0.55470   0.55672   0.61591   0.00000  Uiso   1.00
N69    N     0.50828   0.53758   0.57773   0.00000  Uiso   1.00
H70    H     0.40969   0.49724   0.34788   0.00000  Uiso   1.00
H71    H     0.63221   0.58511   0.59656   0.00000  Uiso   1.00
C72    C     0.00230   0.45586   0.52689   0.00000  Uiso   1.00
C73    C     0.99717   0.50611   0.46661   0.00000  Uiso   1.00
N74    N     0.98079   0.54565   0.48758   0.00000  Uiso   1.00
C75    C     0.96969   0.53776   0.56704   0.00000  Uiso   1.00
C76    C    -0.02488   0.48792   0.62709   0.00000  Uiso   1.00
N77    N    -0.00879   0.44799   0.60585   0.00000  Uiso   1.00
N78    N     0.01885   0.41647   0.50579   0.00000  Uiso   1.00
C79    C     0.03021   0.42473   0.42635   0.00000  Uiso   1.00
C80    C     1.02535   0.47534   0.36664   0.00000  Uiso   1.00
N81    N     1.00875   0.51460   0.38793   0.00000  Uiso   1.00
H82    H     0.95746   0.57072   0.58305   0.00000  Uiso   1.00
H83    H     0.04265   0.39213   0.40996   0.00000  Uiso   1.00
C84    C     0.47371   0.00182   0.50860   0.00000  Uiso   1.00
C85    C     0.50032   0.97062   0.55157   0.00000  Uiso   1.00
N86    N     0.51446   0.93726   0.51086   0.00000  Uiso   1.00
C87    C     0.50322  -0.06635   0.42917   0.00000  Uiso   1.00
C88    C     0.47644  -0.03545   0.38573   0.00000  Uiso   1.00
N89    N     0.46232  -0.00189   0.42682   0.00000  Uiso   1.00
N90    N     0.45940   0.03488   0.54962   0.00000  Uiso   1.00
C91    C     0.47095   1.03867   0.63134   0.00000  Uiso   1.00
C92    C     0.49838   1.00859   0.67421   0.00000  Uiso   1.00
N93    N     0.51226   0.97499   0.63296   0.00000  Uiso   1.00
H94    H     0.51462  -0.09393   0.39870   0.00000  Uiso   1.00
H95    H     0.45967   1.06617   0.66215   0.00000  Uiso   1.00
C96    C     0.27816   0.54733   0.09221   0.00000  Uiso   1.00
C97    C     0.24348   0.52478   1.02500   0.00000  Uiso   1.00
N98    N     0.25417   0.50392   0.96277   0.00000  Uiso   1.00
C99    C     0.29799   0.50412   0.96492   0.00000  Uiso   1.00
C100   C     0.33301   0.52707   1.03183   0.00000  Uiso   1.00
N101   N     0.32216   0.54848   0.09369   0.00000  Uiso   1.00
N102   N     0.26521   0.56169   0.15785   0.00000  Uiso   1.00
C103   C     0.21985   0.55719   0.15761   0.00000  Uiso   1.00
C104   C     0.18726   0.54101   1.08808   0.00000  Uiso   1.00
N105   N     0.19863   0.52159   1.02452   0.00000  Uiso   1.00
H106   H     0.30517   0.48615   0.91523   0.00000  Uiso   1.00
H107   H     0.20690   0.56018   0.21327   0.00000  Uiso   1.00
C108   C     0.80859   0.23124   0.00791   0.00000  Uiso   1.00
C109   C     0.77609   0.25446   0.01580   0.00000  Uiso   1.00
N110   N     0.79650   0.32107   0.04003   0.00000  Uiso   1.00
C111   C     0.84839   0.36682   0.05560   0.00000  Uiso   1.00
C112   C     0.88133   0.34453   0.04369   0.00000  Uiso   1.00
N113   N     0.86029   0.27681   0.02165   0.00000  Uiso   1.00
N114   N     0.78831   0.16491  -0.01693   0.00000  Uiso   1.00
C115   C     0.73678   0.12105  -0.03559   0.00000  Uiso   1.00
C116   C     0.70472   0.14586  -0.03130   0.00000  Uiso   1.00
N117   N     0.72508   0.21179  -0.00513   0.00000  Uiso   1.00
H118   H     0.86310   0.42270   0.06815   0.00000  Uiso   1.00
H119   H     0.72151   0.06882  -0.05611   0.00000  Uiso   1.00
C120   C     0.76877   0.47972  -0.05784   0.00000  Uiso   1.00
C121   C     0.73234   0.45185   0.87850   0.00000  Uiso   1.00
N122   N     0.74090   0.42003   0.82126   0.00000  Uiso   1.00
C123   C     0.78512   0.41798   0.82549   0.00000  Uiso   1.00
C124   C     0.81873   0.44440  -0.10735   0.00000  Uiso   1.00
N125   N     0.81042   0.47501  -0.05210   0.00000  Uiso   1.00
N126   N     0.76328   0.51426  -0.00473   0.00000  Uiso   1.00
C127   C     0.72336   0.52349  -0.01410   0.00000  Uiso   1.00
C128   C     0.68679   0.49589  -0.07851   0.00000  Uiso   1.00
N129   N     0.69178   0.45963   0.86958   0.00000  Uiso   1.00
H130   H     0.74853   0.40450   0.79742   0.00000  Uiso   1.00
H131   H     0.72073   0.55268   0.02784   0.00000  Uiso   1.00
C132   C     0.22330   0.73246   0.99144   0.00000  Uiso   1.00
C133   C     0.18553   0.74589   0.99989   0.00000  Uiso   1.00
N134   N     0.19872   0.80592   1.03297   0.00000  Uiso   1.00
C135   C     0.24805   0.85252   1.06008   0.00000  Uiso   1.00
C136   C     0.28519   0.83681   1.05593   0.00000  Uiso   1.00
N137   N     0.27210   0.77752   1.02089   0.00000  Uiso   1.00
N138   N     0.20965   0.67150   0.95976   0.00000  Uiso   1.00
C139   C     0.15940   0.62123   0.93848   0.00000  Uiso   1.00
C140   C     0.12099   0.63341   0.95148   0.00000  Uiso   1.00
N141   N     0.13556   0.69609   0.98012   0.00000  Uiso   1.00
H142   H     0.25765   0.89941   1.08728   0.00000  Uiso   1.00
H143   H     0.15053   0.56907   0.92199   0.00000  Uiso   1.00
C144   C     0.52004   0.80052   0.95370   0.00000  Uiso   1.00
C145   C     0.47570   0.73148   0.93853   0.00000  Uiso   1.00
N146   N     0.42804   0.71973   0.93478   0.00000  Uiso   1.00
C147   C     0.42237   0.77332   0.94762   0.00000  Uiso   1.00
C148   C     0.46614   0.84123   0.96617   0.00000  Uiso   1.00
N149   N     0.51435   0.85397   0.96813   0.00000  Uiso   1.00
N150   N     0.56755   0.81102   0.95828   0.00000  Uiso   1.00
C151   C     0.57241   0.75514   0.94966   0.00000  Uiso   1.00
C152   C     0.52772   0.68564   0.93733   0.00000  Uiso   1.00
N153   N     0.48065   0.67606   0.93116   0.00000  Uiso   1.00
H154   H     0.38370   0.76172   0.94773   0.00000  Uiso   1.00
H155   H     0.61053   0.76444   0.95344   0.00000  Uiso   1.00
C156   C     0.49506   0.24570   0.08586   0.00000  Uiso   1.00
C157   C     0.54609   0.26859   0.07408   0.00000  Uiso   1.00
N158   N     0.58427   0.34194   0.06071   0.00000  Uiso   1.00
C159   C     0.57309   0.39371   0.05448   0.00000  Uiso   1.00
C160   C     0.52141   0.37119   0.05720   0.00000  Uiso   1.00
N161   N     0.48367   0.29763   0.07678   0.00000  Uiso   1.00
N162   N     0.45750   0.17193   0.10204   0.00000  Uiso   1.00
C163   C     0.46824   0.12014   0.10198   0.00000  Uiso   1.00
C164   C     0.51838   0.14359   0.08317   0.00000  Uiso   1.00
N165   N     0.55615   0.21731   0.07123   0.00000  Uiso   1.00
H166   H     0.60421   0.45180   0.04964   0.00000  Uiso   1.00
H167   H     0.43752   0.06204   0.11131   0.00000  Uiso   1.00
loop_
_geom_bond_atom_site_label_1
_geom_bond_atom_site_label_2
_geom_bond_distance
_geom_bond_site_symmetry_2
_ccdc_geom_bond_type
C0     O11     1.280   .     A
C0     O12     1.279   .     A
C0     C68     1.487   .     S
Sm1    O5      2.266   .     S
Sm1    O6      2.238   .     S
Sm1    O8      2.306   .     S
Sm1    O10     2.236   .     S
Sm1    O13     2.292   .     S
Sm1    O9      2.253   1_554 S
Sm2    O7      2.282   .     S
Sm2    O11     2.260   .     S
Sm2    O12     2.240   .     S
Sm2    O14     2.288   .     S
Sm2    O16     2.241   .     S
Sm2    O15     2.233   1_556 S
C3     O13     1.274   .     A
C3     C160    1.464   .     S
C3     O14     1.269   1_554 A
C4     O16     1.281   .     A
C4     O15     1.284   1_556 A
C4     C128    1.477   1_556 S
O5     C17     1.280   .     A
O6     C17     1.273   .     A
O7     C18     1.274   .     A
O8     C18     1.267   1_554 A
O9     Sm1     2.253   1_556 S
O9     C19     1.281   1_556 A
O10    C19     1.278   .     A
O14    C3      1.269   1_556 A
O15    Sm2     2.233   1_554 S
O15    C4      1.284   1_554 A
C17    C64     1.486   .     S
C18    C152    1.463   .     S
C18    O8      1.267   1_556 A
C19    O9      1.281   1_554 A
C19    C100    1.477   1_554 S
C20    O32     1.281   .     A
C20    C80     1.444   .     S
C20    O31     1.281   1_655 A
Sm21   O25     2.202   .     S
Sm21   O28     2.244   .     S
Sm21   O30     2.232   .     S
Sm21   O26     2.192   1_655 S
Sm21   O29     2.212   1_556 S
Sm21   O33     2.274   1_655 S
Sm22   O31     2.196   .     S
Sm22   O34     2.263   .     S
Sm22   O36     2.224   .     S
Sm22   O27     2.270   1_455 S
Sm22   O32     2.199   1_455 S
Sm22   O35     2.213   1_554 S
C23    O33     1.274   .     A
C23    C140    1.461   .     S
C23    O34     1.271   1_556 A
C24    O36     1.282   .     A
C24    O35     1.284   1_554 A
C24    C104    1.437   1_554 S
O25    C37     1.282   1_655 A
O26    C37     1.280   .     A
O26    Sm21    2.192   1_455 S
O27    C38     1.270   .     A
O27    Sm22    2.270   1_655 S
O28    C38     1.268   1_556 A
O29    Sm21    2.212   1_554 S
O29    C39     1.286   1_554 A
O30    C39     1.277   .     A
O31    C20     1.281   1_455 A
O32    Sm22    2.199   1_655 S
O33    Sm21    2.274   1_455 S
O34    C23     1.271   1_554 A
O35    Sm22    2.213   1_556 S
O35    C24     1.284   1_556 A
C37    C76     1.445   .     S
C37    O25     1.282   1_455 A
C38    C112    1.460   .     S
C38    O28     1.268   1_554 A
C39    O29     1.286   1_556 A
C39    C124    1.440   1_556 S
C40    O52     1.285   .     A
C40    C88     1.482   .     S
C40    O51     1.279   1_545 A
Sm41   O45     2.227   .     S
Sm41   O48     2.261   .     S
Sm41   O50     2.211   .     S
Sm41   O46     2.247   1_545 S
Sm41   O49     2.223   1_556 S
Sm41   O53     2.244   1_545 S
Sm42   O51     2.223   .     S
Sm42   O54     2.262   .     S
Sm42   O56     2.213   .     S
Sm42   O47     2.261   1_565 S
Sm42   O52     2.255   1_565 S
Sm42   O55     2.217   1_554 S
C43    O53     1.263   .     A
C43    C148    1.458   .     S
C43    O54     1.266   1_556 A
C44    O56     1.286   .     A
C44    O55     1.282   1_554 A
C44    C136    1.457   1_554 S
O45    C57     1.281   1_545 A
O46    C57     1.286   .     A
O46    Sm41    2.247   1_565 S
O47    C58     1.270   .     A
O47    Sm42    2.261   1_545 S
O48    C58     1.275   1_556 A
O49    Sm41    2.223   1_554 S
O49    C59     1.284   1_554 A
O50    C59     1.283   .     A
O51    C40     1.279   1_565 A
O52    Sm42    2.255   1_545 S
O53    Sm41    2.244   1_565 S
O54    C43     1.266   1_554 A
O55    Sm42    2.217   1_556 S
O55    C44     1.282   1_556 A
C57    C92     1.481   .     S
C57    O45     1.281   1_565 A
C58    C164    1.464   .     S
C58    O48     1.275   1_554 A
C59    O49     1.284   1_556 A
C59    C116    1.456   1_556 S
C60    C61     1.405   .     A
C60    N65     1.366   .     A
C60    N66     1.357   .     A
C61    N62     1.357   .     A
C61    N69     1.364   .     A
N62    C63     1.363   .     A
C63    C64     1.411   .     A
C63    H70     1.085   .     S
C64    N65     1.365   .     A
N66    C67     1.363   .     A
C67    C68     1.412   .     A
C67    H71     1.084   .     S
C68    N69     1.364   .     A
C72    N77     1.350   .     A
C72    N78     1.354   .     A
C72    C73     1.406   1_455 A
C73    N74     1.352   .     A
C73    N81     1.347   .     A
C73    C72     1.406   1_655 A
N74    C75     1.358   .     A
C75    H82     1.082   .     S
C75    C76     1.402   1_655 A
C76    N77     1.354   .     A
C76    C75     1.402   1_455 A
N78    C79     1.358   .     A
C79    H83     1.082   .     S
C79    C80     1.402   1_455 A
C80    N81     1.353   .     A
C80    C79     1.402   1_655 A
C84    N89     1.364   .     A
C84    N90     1.360   .     A
C84    C85     1.407   1_545 A
C85    N86     1.358   .     A
C85    N93     1.361   .     A
C85    C84     1.407   1_565 A
N86    C87     1.362   1_565 A
C87    C88     1.409   .     A
C87    H94     1.083   .     S
C87    N86     1.362   1_545 A
C88    N89     1.365   .     A
N90    C91     1.364   1_545 A
C91    C92     1.409   .     A
C91    H95     1.082   .     S
C91    N90     1.364   1_565 A
C92    N93     1.363   .     A
C96    N101    1.359   .     A
C96    N102    1.360   .     A
C96    C97     1.402   1_554 A
C97    N98     1.359   .     A
C97    N105    1.363   .     A
C97    C96     1.402   1_556 A
N98    C99     1.364   .     A
C99    C100    1.404   .     A
C99    H106    1.081   .     S
C100   N101    1.364   1_556 A
C100   C19     1.477   1_556 S
N101   C100    1.364   1_554 A
N102   C103    1.364   .     A
C103   H107    1.082   .     S
C103   C104    1.395   1_554 A
C104   N105    1.369   .     A
C104   C103    1.395   1_556 A
C104   C24     1.437   1_556 S
C108   C109    1.403   .     A
C108   N113    1.353   .     A
C108   N114    1.360   .     A
C109   N110    1.359   .     A
C109   N117    1.356   .     A
N110   C111    1.363   .     A
C111   C112    1.419   .     A
C111   H118    1.104   .     S
C112   N113    1.362   .     A
N114   C115    1.361   .     A
C115   C116    1.404   .     A
C115   H119    1.082   .     S
C116   N117    1.362   .     A
C116   C59     1.456   1_554 S
C120   N125    1.354   .     A
C120   N126    1.360   .     A
C120   C121    1.396   1_554 A
C121   N122    1.421   .     A
C121   N129    1.360   .     A
C121   C120    1.396   1_556 A
N122   C123    1.401   .     A
C123   H130    1.071   .     S
C123   C124    1.397   1_556 A
C124   N125    1.370   .     A
C124   C123    1.397   1_554 A
C124   C39     1.440   1_554 S
N126   C127    1.360   .     A
C127   C128    1.406   .     A
C127   H131    1.079   .     S
C128   N129    1.365   1_554 A
C128   C4      1.477   1_554 S
N129   C128    1.365   1_556 A
C132   C133    1.400   .     A
C132   N137    1.356   .     A
C132   N138    1.362   .     A
C133   N134    1.360   .     A
C133   N141    1.351   .     A
N134   C135    1.360   .     A
C135   C136    1.401   .     A
C135   H142    1.082   .     S
C136   N137    1.366   .     A
C136   C44     1.457   1_556 S
N138   C139    1.365   .     A
C139   C140    1.421   .     A
C139   H143    1.109   .     S
C140   N141    1.361   .     A
C144   C145    1.408   .     A
C144   N149    1.361   .     A
C144   N150    1.361   .     A
C145   N146    1.355   .     A
C145   N153    1.351   .     A
N146   C147    1.354   .     A
C147   C148    1.404   .     A
C147   H154    1.085   .     S
C148   N149    1.365   .     A
N150   C151    1.365   .     A
C151   C152    1.406   .     A
C151   H155    1.084   .     S
C152   N153    1.356   .     A
C156   C157    1.402   .     A
C156   N161    1.361   .     A
C156   N162    1.359   .     A
C157   N158    1.355   .     A
C157   N165    1.349   .     A
N158   C159    1.358   .     A
C159   C160    1.399   .     A
C159   H166    1.080   .     S
C160   N161    1.362   .     A
N162   C163    1.366   .     A
C163   C164    1.401   .     A
C163   H167    1.076   .     S
C164   N165    1.357   .     A
