data_kag+N248+E35
_audit_creation_date              2025-01-21
_audit_creation_method            'Materials Studio'
_symmetry_space_group_name_H-M    'P1'
_symmetry_Int_Tables_number       1
_symmetry_cell_setting            triclinic
loop_
_symmetry_equiv_pos_as_xyz
  x,y,z
_cell_length_a                    32.6384
_cell_length_b                    35.1566
_cell_length_c                    15.5567
_cell_angle_alpha                 93.1125
_cell_angle_beta                  90.3938
_cell_angle_gamma                 128.2667
loop_
_atom_site_label
_atom_site_type_symbol
_atom_site_fract_x
_atom_site_fract_y
_atom_site_fract_z
_atom_site_U_iso_or_equiv
_atom_site_adp_type
_atom_site_occupancy
O0     O     0.50938   0.53626   0.87119   0.00000  Uiso   1.00
Yb1    Yb    0.48727   0.45227   0.99873   0.00000  Uiso   1.00
C2     C     0.46388   0.36812  -0.01161   0.00000  Uiso   1.00
Yb3    Yb    0.51895   0.54772   0.01085   0.00000  Uiso   1.00
O4     O     0.48456   0.45896   0.86223   0.00000  Uiso   1.00
C5     C     0.41961   0.50003   0.01889   0.00000  Uiso   1.00
C6     C     0.49597   0.49710   0.82710   0.00000  Uiso   1.00
O7     O     0.49536   0.59228   1.02120   0.00000  Uiso   1.00
C8     C     0.54208   0.63181   1.01895   0.00000  Uiso   1.00
O9     O     0.55545   0.45617   0.98920   0.00000  Uiso   1.00
O10    O     0.56416   0.52360  -0.00029   0.00000  Uiso   1.00
O11    O     0.49702   0.46363   0.13748   0.00000  Uiso   1.00
O12    O     0.57714   0.62611   0.01443   0.00000  Uiso   1.00
O13    O     0.52142   0.54081   0.14830   0.00000  Uiso   1.00
C14    C     0.58684   0.50066   0.99178   0.00000  Uiso   1.00
C15    C     0.51019   0.50243   0.18246   0.00000  Uiso   1.00
O16    O     0.51083   0.40761  -0.01225   0.00000  Uiso   1.00
O17    O     0.42905   0.37406   0.99384   0.00000  Uiso   1.00
O18    O     0.45166   0.54444   0.02096   0.00000  Uiso   1.00
O19    O     0.44146   0.47623   1.01006   0.00000  Uiso   1.00
O20    O     0.97828   0.51361   0.86264   0.00000  Uiso   1.00
Yb21   Yb    0.03803   0.49043  -0.00024   0.00000  Uiso   1.00
C22    C     0.10307   0.47306   0.00357   0.00000  Uiso   1.00
Yb23   Yb    0.96967   0.51440   0.99937   0.00000  Uiso   1.00
O24    O     0.03449   0.49495   0.86132   0.00000  Uiso   1.00
C25    C     0.90152   0.42104  -0.01428   0.00000  Uiso   1.00
C26    C     0.00681   0.50483   0.82254   0.00000  Uiso   1.00
O27    O     0.89075   0.48844   0.98829   0.00000  Uiso   1.00
C28    C     0.90430   0.53138   0.99328   0.00000  Uiso   1.00
O29    O     0.11718   0.55637   1.01400   0.00000  Uiso   1.00
O30    O     0.05221   0.55993   0.01111   0.00000  Uiso   1.00
O31    O     0.02958   0.49151   0.13761   0.00000  Uiso   1.00
O32    O     0.95350   0.56557   0.00474   0.00000  Uiso   1.00
O33    O     0.97283   0.50970   0.13678   0.00000  Uiso   1.00
C34    C     0.10580   0.58380   1.01830   0.00000  Uiso   1.00
C35    C     0.00060   0.50023   0.17661   0.00000  Uiso   1.00
O36    O     0.11692   0.51615   0.00901   0.00000  Uiso   1.00
O37    O     0.05377   0.43909   0.99375   0.00000  Uiso   1.00
O38    O     0.89085   0.44894  -0.01400   0.00000  Uiso   1.00
O39    O     0.95516   0.44452   0.99060   0.00000  Uiso   1.00
O40    O     0.48076   0.01647   0.11714   0.00000  Uiso   1.00
Yb41   Yb    0.51467   0.96524  -0.03261   0.00000  Uiso   1.00
C42    C     0.53919   0.90996   0.96126   0.00000  Uiso   1.00
Yb43   Yb    0.47940   0.02347   0.97926   0.00000  Uiso   1.00
O44    O     0.51203   0.97291   0.10982   0.00000  Uiso   1.00
C45    C     0.57772   0.09015   0.00618   0.00000  Uiso   1.00
C46    C     0.49926  -0.00295   0.15369   0.00000  Uiso   1.00
O47    O     0.50216   0.09483  -0.00382   0.00000  Uiso   1.00
C48    C     0.45533   0.08032  -0.01169   0.00000  Uiso   1.00
O49    O     0.45639   0.91997   0.05807   0.00000  Uiso   1.00
O50    O     0.43745   0.94667   0.95455   0.00000  Uiso   1.00
O51    O     0.52038   0.97957   0.83368   0.00000  Uiso   1.00
O52    O     0.42051   0.03421   0.97500   0.00000  Uiso   1.00
O53    O     0.49052   0.02453   0.84107   0.00000  Uiso   1.00
C54    C     0.42087   0.91711   0.02274   0.00000  Uiso   1.00
C55    C     0.50761   0.00407   0.79861   0.00000  Uiso   1.00
O56    O     0.49317   0.89540   0.94253   0.00000  Uiso   1.00
O57    O     0.57325   0.95569  -0.01878   0.00000  Uiso   1.00
O58    O     0.54628   0.09835   1.00309   0.00000  Uiso   1.00
O59    O     0.55447   0.04101  -0.00872   0.00000  Uiso   1.00
C60    C     0.50457   0.49715   0.45691   0.00000  Uiso   1.00
C61    C     0.50336   0.46211   0.40617   0.00000  Uiso   1.00
C62    C     0.50622   0.46448   0.31705   0.00000  Uiso   1.00
C63    C     0.51097   0.50194   0.27772   0.00000  Uiso   1.00
C64    C     0.51398   0.53730   0.33088   0.00000  Uiso   1.00
N65    N     0.51059   0.53396   0.41773   0.00000  Uiso   1.00
C66    C     0.50000   0.49543   0.55181   0.00000  Uiso   1.00
N67    N     0.51771   0.53671   0.60089   0.00000  Uiso   1.00
C68    C     0.51558   0.53798   0.68831   0.00000  Uiso   1.00
C69    C     0.49486   0.49591   0.73163   0.00000  Uiso   1.00
C70    C     0.47514   0.45273   0.68205   0.00000  Uiso   1.00
C71    C     0.47728   0.45223   0.59261   0.00000  Uiso   1.00
H72    H     0.50450   0.43676   0.27896   0.00000  Uiso   1.00
H73    H     0.51784   0.56695   0.30344   0.00000  Uiso   1.00
H74    H     0.53107   0.57208   0.72382   0.00000  Uiso   1.00
H75    H     0.45816   0.41921   0.71233   0.00000  Uiso   1.00
H76    H     0.50070   0.43325   0.43431   0.00000  Uiso   1.00
H77    H     0.46079   0.41810   0.55650   0.00000  Uiso   1.00
C78    C     0.00235   0.50454   0.54744   0.00000  Uiso   1.00
C79    C     0.98200   0.52342   0.59686   0.00000  Uiso   1.00
C80    C     0.98398   0.52374   0.68625   0.00000  Uiso   1.00
C81    C     0.00689   0.50605   0.72750   0.00000  Uiso   1.00
C82    C     0.02845   0.48899   0.67614   0.00000  Uiso   1.00
N83    N     0.02554   0.48854   0.58864   0.00000  Uiso   1.00
C84    C    -0.00008   0.50229   0.45189   0.00000  Uiso   1.00
N85    N     0.03393   0.49935   0.40795   0.00000  Uiso   1.00
C86    C     0.03445   0.49794   0.32041   0.00000  Uiso   1.00
C87    C    -0.00063   0.49979   0.27167   0.00000  Uiso   1.00
C88    C     0.96330   0.50179   0.31557   0.00000  Uiso   1.00
C89    C     0.96313   0.50264   0.40518   0.00000  Uiso   1.00
H90    H     0.96759   0.53805   0.72302   0.00000  Uiso   1.00
H91    H     0.04683   0.47534   0.70521   0.00000  Uiso   1.00
H92    H     0.06275   0.49605   0.28922   0.00000  Uiso   1.00
H93    H     0.93495   0.50247   0.28072   0.00000  Uiso   1.00
H94    H     0.96521   0.53845   0.56760   0.00000  Uiso   1.00
H95    H     0.93391   0.50292   0.43670   0.00000  Uiso   1.00
C96    C     0.51046   0.00359   0.42900   0.00000  Uiso   1.00
C97    C     0.51895  -0.02539   0.37952   0.00000  Uiso   1.00
C98    C     0.51524  -0.02742   0.28996   0.00000  Uiso   1.00
C99    C     0.50258  -0.00113   0.24889   0.00000  Uiso   1.00
C100   C     0.49334   1.02666   0.30046   0.00000  Uiso   1.00
N101   N     0.49740   1.02826   0.38791   0.00000  Uiso   1.00
C102   C     0.51339   0.00652   0.52449   0.00000  Uiso   1.00
N103   N     0.48739   1.01947   0.56889   0.00000  Uiso   1.00
C104   C     0.48642   1.02073   0.65643   0.00000  Uiso   1.00
C105   C     0.51214   0.00776   0.70437   0.00000  Uiso   1.00
C106   C     0.54069  -0.00396   0.66005   0.00000  Uiso   1.00
C107   C     0.54179  -0.00425   0.57062   0.00000  Uiso   1.00
H108   H     0.52188  -0.05000   0.25297   0.00000  Uiso   1.00
H109   H     0.48313   1.04727   0.27149   0.00000  Uiso   1.00
H110   H     0.46428   1.03041   0.68806   0.00000  Uiso   1.00
H111   H     0.56206  -0.01322   0.69444   0.00000  Uiso   1.00
H112   H     0.52731  -0.04721   0.40895   0.00000  Uiso   1.00
H113   H     0.56480  -0.01277   0.53867   0.00000  Uiso   1.00
C114   C     0.26673   0.45623   0.02991   0.00000  Uiso   1.00
C115   C     0.27540   0.43085   0.96948   0.00000  Uiso   1.00
C116   C     0.32462   0.44149   0.96964   0.00000  Uiso   1.00
C117   C     0.36428   0.47700   0.02981   0.00000  Uiso   1.00
C118   C     0.35254   0.49842   0.09276   0.00000  Uiso   1.00
N119   N     0.30524   0.48829   0.09036   0.00000  Uiso   1.00
C120   C     0.22139   0.45605   0.02338   0.00000  Uiso   1.00
N121   N     0.22877   0.49673   0.05566   0.00000  Uiso   1.00
C122   C     0.19129   0.50216   0.05027   0.00000  Uiso   1.00
C123   C     0.14220   0.46499   0.01081   0.00000  Uiso   1.00
C124   C     0.13263   0.42188   0.97867   0.00000  Uiso   1.00
C125   C     0.17246   0.41740   0.98406   0.00000  Uiso   1.00
H126   H     0.33287   0.42493   0.91925   0.00000  Uiso   1.00
H127   H     0.38227   0.52590   0.14032   0.00000  Uiso   1.00
H128   H     0.20008   0.53573   0.07691   0.00000  Uiso   1.00
H129   H     0.09498   0.39231   0.94815   0.00000  Uiso   1.00
H130   H     0.24620   0.40595   0.91910   0.00000  Uiso   1.00
H131   H     0.16494   0.38427   0.95839   0.00000  Uiso   1.00
C132   C     0.77848   0.27010   0.00571   0.00000  Uiso   1.00
C133   C     0.82847   0.28482  -0.01151   0.00000  Uiso   1.00
C134   C     0.86950   0.33436  -0.01970   0.00000  Uiso   1.00
C135   C     0.85992   0.36822  -0.01264   0.00000  Uiso   1.00
C136   C     0.80905   0.35138   0.00199   0.00000  Uiso   1.00
N137   N     0.77063   0.30381   1.01159   0.00000  Uiso   1.00
C138   C     0.73300   0.21973   0.01929   0.00000  Uiso   1.00
N139   N     0.69630   0.21384   1.07092   0.00000  Uiso   1.00
C140   C     0.64828   0.17070   1.07477   0.00000  Uiso   1.00
C141   C     0.63377   0.13038   1.02156   0.00000  Uiso   1.00
C142   C     0.67173   0.13412  -0.02800   0.00000  Uiso   1.00
C143   C     0.72190   0.17909  -0.02914   0.00000  Uiso   1.00
H144   H     0.90843   0.34619  -0.03063   0.00000  Uiso   1.00
H145   H     0.79984   0.37613   1.00826   0.00000  Uiso   1.00
H146   H     0.62009   0.16898   1.11440   0.00000  Uiso   1.00
H147   H     0.66144   0.10371  -0.07075   0.00000  Uiso   1.00
H148   H     0.83599   0.25883  -0.01609   0.00000  Uiso   1.00
H149   H     0.74989   0.18283  -0.07228   0.00000  Uiso   1.00
C150   C     0.78470   0.54610   0.96992   0.00000  Uiso   1.00
C151   C     0.77984   0.50795   0.92394   0.00000  Uiso   1.00
C152   C     0.81962   0.50424   0.93114   0.00000  Uiso   1.00
C153   C     0.86486   0.53876   0.98285   0.00000  Uiso   1.00
C154   C     0.86926   0.57732   0.02620   0.00000  Uiso   1.00
N155   N     0.82900   0.57950   0.02019   0.00000  Uiso   1.00
C156   C     0.73971   0.54655   0.97044   0.00000  Uiso   1.00
N157   N     0.72475   0.55439   0.04663   0.00000  Uiso   1.00
C158   C     0.67776   0.54516   0.05353   0.00000  Uiso   1.00
C159   C     0.64252   0.52546   0.98168   0.00000  Uiso   1.00
C160   C     0.65840   0.52002   0.90188   0.00000  Uiso   1.00
C161   C     0.70723   0.53113   0.89570   0.00000  Uiso   1.00
H162   H     0.81473   0.47388   0.89691   0.00000  Uiso   1.00
H163   H     0.90356   0.60438   0.06728   0.00000  Uiso   1.00
H164   H     0.66631   0.54947   0.11619   0.00000  Uiso   1.00
H165   H     0.63179   0.50446   0.84541   0.00000  Uiso   1.00
H166   H     0.74458   0.47989   0.88569   0.00000  Uiso   1.00
H167   H     0.71817   0.52489   0.83410   0.00000  Uiso   1.00
C168   C     0.26968   0.78948   0.05890   0.00000  Uiso   1.00
C169   C     0.30660   0.81227   0.12888   0.00000  Uiso   1.00
C170   C     0.35490   0.85721   0.12044   0.00000  Uiso   1.00
C171   C     0.36605   0.87982   0.04311   0.00000  Uiso   1.00
C172   C     0.32584   0.85883   0.97885   0.00000  Uiso   1.00
N173   N     0.27954   0.81405   0.98725   0.00000  Uiso   1.00
C174   C     0.22548   0.73691   1.05605   0.00000  Uiso   1.00
N175   N     0.17884   0.71838   1.01514   0.00000  Uiso   1.00
C176   C     0.13902   0.66958   1.00477   0.00000  Uiso   1.00
C177   C     0.14616   0.63675   1.03324   0.00000  Uiso   1.00
C178   C     0.19385   0.65518   1.07509   0.00000  Uiso   1.00
C179   C     0.23329   0.70501   0.08722   0.00000  Uiso   1.00
H180   H     0.38483   0.87253   0.17184   0.00000  Uiso   1.00
H181   H     0.33301   0.87555   0.91859   0.00000  Uiso   1.00
H182   H     0.10266   0.65646   0.97183   0.00000  Uiso   1.00
H183   H     0.20078   0.63096   0.09799   0.00000  Uiso   1.00
H184   H     0.29958   0.79400   0.18724   0.00000  Uiso   1.00
H185   H     0.27039   0.71831   0.11739   0.00000  Uiso   1.00
C186   C     0.56169   0.80353   0.98213   0.00000  Uiso   1.00
C187   C     0.60443   0.85257   1.00263   0.00000  Uiso   1.00
C188   C     0.59834   0.88836   0.99326   0.00000  Uiso   1.00
C189   C     0.55009   0.87503   0.96283   0.00000  Uiso   1.00
C190   C     0.50944   0.82588   0.93972   0.00000  Uiso   1.00
N191   N     0.51599   0.79204   0.95089   0.00000  Uiso   1.00
C192   C     0.56181   0.76273   0.99914   0.00000  Uiso   1.00
N193   N     0.51513   0.72002   1.01452   0.00000  Uiso   1.00
C194   C     0.50926   0.67902   1.02515   0.00000  Uiso   1.00
C195   C     0.55190   0.67881   1.01830   0.00000  Uiso   1.00
C196   C     0.60110   0.72262   1.00451   0.00000  Uiso   1.00
C197   C     0.60631   0.76497   0.99522   0.00000  Uiso   1.00
H198   H     0.63053   0.92597   1.01232   0.00000  Uiso   1.00
H199   H     0.47165   0.81390   0.91569   0.00000  Uiso   1.00
H200   H     0.47064   0.64623   0.03621   0.00000  Uiso   1.00
H201   H     0.63486   0.72376   0.99846   0.00000  Uiso   1.00
H202   H     0.64110   0.86291   1.02904   0.00000  Uiso   1.00
H203   H     0.64394   0.79824   0.98177   0.00000  Uiso   1.00
C204   C     0.43926   0.23371  -0.01296   0.00000  Uiso   1.00
C205   C     0.39533   0.23244  -0.01176   0.00000  Uiso   1.00
C206   C     0.40249   0.27621  -0.01258   0.00000  Uiso   1.00
C207   C     0.45306   0.32055  -0.01518   0.00000  Uiso   1.00
C208   C     0.49532   0.31968  -0.01829   0.00000  Uiso   1.00
N209   N     0.48746   0.27721  -0.01641   0.00000  Uiso   1.00
C210   C     0.43719   0.19071  -0.00679   0.00000  Uiso   1.00
N211   N     0.48216   0.19947   0.02022   0.00000  Uiso   1.00
C212   C     0.48717   0.16417   0.02230   0.00000  Uiso   1.00
C213   C     0.44545   0.11609  -0.00580   0.00000  Uiso   1.00
C214   C     0.39773   0.10525  -0.03184   0.00000  Uiso   1.00
C215   C     0.39336   0.14266  -0.03236   0.00000  Uiso   1.00
H216   H     0.36888   0.27550  -0.00993   0.00000  Uiso   1.00
H217   H     0.53498   0.35285  -0.02061   0.00000  Uiso   1.00
H218   H     0.52454   0.17426   0.04390   0.00000  Uiso   1.00
H219   H     0.36469   0.06852  -0.05415   0.00000  Uiso   1.00
H220   H     0.35639   0.19863  -0.00777   0.00000  Uiso   1.00
H221   H     0.35708   0.13432  -0.05544   0.00000  Uiso   1.00
loop_
_geom_bond_atom_site_label_1
_geom_bond_atom_site_label_2
_geom_bond_distance
_geom_bond_site_symmetry_2
_ccdc_geom_bond_type
O0     C6      1.305   .     A
O0     Yb3     2.173   1_556 S
Yb1    O4      2.156   .     S
Yb1    O9      2.149   .     S
Yb1    O17     2.163   .     S
Yb1    O19     2.127   .     S
Yb1    Yb3     2.828   1_556 S
Yb1    O10     2.188   1_556 S
Yb1    O11     2.159   1_556 S
Yb1    O16     2.134   1_556 S
C2     O16     1.282   .     A
C2     C207    1.477   .     S
C2     O17     1.279   1_554 A
Yb3    O10     2.113   .     S
Yb3    O12     2.169   .     S
Yb3    O13     2.172   .     S
Yb3    O18     2.134   .     S
Yb3    O0      2.173   1_554 S
Yb3    Yb1     2.828   1_554 S
Yb3    O7      2.131   1_554 S
Yb3    O19     2.199   1_554 S
O4     C6      1.303   .     A
C5     O18     1.227   .     D
C5     C117    1.468   .     S
C5     O19     1.399   1_554 S
C6     C69     1.483   .     S
O7     C8      1.280   .     A
O7     Yb3     2.131   1_556 S
C8     C195    1.476   .     S
C8     O12     1.280   1_556 A
O9     C14     1.227   .     D
O10    Yb1     2.188   1_554 S
O10    C14     1.394   1_554 S
O11    C15     1.304   .     A
O11    Yb1     2.159   1_554 S
O12    C8      1.280   1_554 A
O13    C15     1.306   .     A
C14    C159    1.464   .     S
C14    O10     1.394   1_556 S
C15    C63     1.483   .     S
O16    Yb1     2.134   1_554 S
O17    C2      1.279   1_556 A
O19    Yb3     2.199   1_556 S
O19    C5      1.399   1_556 S
O20    Yb23    2.148   .     S
O20    C26     1.302   1_655 A
Yb21   O30     2.183   .     S
Yb21   O31     2.165   .     S
Yb21   O36     2.137   .     S
Yb21   Yb23    2.831   1_454 S
Yb21   O24     2.176   1_554 S
Yb21   O29     2.148   1_554 S
Yb21   O37     2.159   1_554 S
Yb21   O39     2.122   1_454 S
C22    O36     1.282   .     A
C22    C123    1.475   .     S
C22    O37     1.279   1_554 A
Yb23   O27     2.136   .     S
Yb23   O39     2.191   .     S
Yb23   Yb21    2.831   1_656 S
Yb23   O30     2.115   1_656 S
Yb23   O32     2.164   1_556 S
Yb23   O33     2.160   1_556 S
Yb23   O38     2.137   1_556 S
O24    C26     1.306   .     A
O24    Yb21    2.176   1_556 S
C25    O38     1.228   .     D
C25    C135    1.475   .     S
C25    O39     1.398   1_554 S
C26    C81     1.481   .     S
C26    O20     1.302   1_455 A
O27    C28     1.281   .     A
C28    C153    1.472   .     S
C28    O32     1.279   1_556 A
O29    C34     1.228   .     D
O29    Yb21    2.148   1_556 S
O30    Yb23    2.115   1_454 S
O30    C34     1.395   1_554 S
O31    C35     1.305   .     A
O32    Yb23    2.164   1_554 S
O32    C28     1.279   1_554 A
O33    Yb23    2.160   1_554 S
O33    C35     1.306   1_655 A
C34    C177    1.472   .     S
C34    O30     1.395   1_556 S
C35    C87     1.480   .     S
C35    O33     1.306   1_455 A
O37    Yb21    2.159   1_556 S
O37    C22     1.279   1_556 A
O38    Yb23    2.137   1_554 S
O39    Yb21    2.122   1_656 S
O39    C25     1.398   1_556 S
O40    C46     1.304   .     A
O40    Yb43    2.175   1_554 S
Yb41   O44     2.226   .     S
Yb41   O49     2.162   .     S
Yb41   O57     2.148   .     S
Yb41   Yb43    2.904   1_564 S
Yb41   O50     2.182   1_554 S
Yb41   O51     2.149   1_554 S
Yb41   O56     2.105   1_554 S
Yb41   O59     2.126   1_565 S
C42    O56     1.276   .     A
C42    C189    1.476   .     S
C42    O57     1.282   1_556 A
Yb43   O52     2.177   .     S
Yb43   O53     2.181   .     S
Yb43   O58     2.144   .     S
Yb43   O40     2.175   1_556 S
Yb43   Yb41    2.904   1_546 S
Yb43   O47     2.129   1_556 S
Yb43   O50     2.148   1_545 S
Yb43   O59     2.128   1_556 S
O44    C46     1.319   1_565 A
C45    O59     1.395   .     S
C45    O58     1.227   1_554 D
C45    C141    1.469   1_554 S
C46    C99     1.479   .     S
C46    O44     1.319   1_545 A
O47    C48     1.279   .     A
O47    Yb43    2.129   1_554 S
C48    C213    1.478   .     S
C48    O52     1.281   1_554 A
O49    C54     1.224   .     D
O50    Yb41    2.182   1_556 S
O50    Yb43    2.148   1_565 S
O50    C54     1.389   1_556 S
O51    Yb41    2.149   1_556 S
O51    C55     1.306   1_565 A
O52    C48     1.281   1_556 A
O53    C55     1.310   .     A
C54    C171    1.472   .     S
C54    O50     1.389   1_554 S
C55    C105    1.479   .     S
C55    O51     1.306   1_545 A
O56    Yb41    2.105   1_556 S
O57    C42     1.282   1_554 A
O58    C45     1.227   1_556 D
O59    Yb41    2.126   1_545 S
O59    Yb43    2.128   1_554 S
C60    C61     1.406   .     A
C60    N65     1.363   .     A
C60    C66     1.486   .     S
C61    C62     1.394   .     A
C61    H76     1.081   .     S
C62    C63     1.403   .     A
C62    H72     1.083   .     S
C63    C64     1.405   .     A
C64    N65     1.362   .     A
C64    H73     1.082   .     S
C66    N67     1.363   .     A
C66    C71     1.406   .     A
N67    C68     1.362   .     A
C68    C69     1.405   .     A
C68    H74     1.082   .     S
C69    C70     1.403   .     A
C70    C71     1.393   .     A
C70    H75     1.083   .     S
C71    H77     1.081   .     S
C78    N83     1.363   .     A
C78    C84     1.483   .     S
C78    C79     1.404   1_455 A
C79    C80     1.391   .     A
C79    H94     1.081   .     S
C79    C78     1.404   1_655 A
C80    H90     1.083   .     S
C80    C81     1.404   1_655 A
C81    C82     1.404   .     A
C81    C80     1.404   1_455 A
C82    N83     1.362   .     A
C82    H91     1.082   .     S
C84    N85     1.362   .     A
C84    C89     1.406   1_455 A
N85    C86     1.361   .     A
C86    C87     1.405   .     A
C86    H92     1.082   .     S
C87    C88     1.402   1_455 A
C88    C89     1.393   .     A
C88    H93     1.083   .     S
C88    C87     1.402   1_655 A
C89    H95     1.081   .     S
C89    C84     1.406   1_655 A
C96    C97     1.405   .     A
C96    C102    1.482   .     S
C96    N101    1.362   1_545 A
C97    C98     1.392   .     A
C97    H112    1.081   .     S
C98    C99     1.402   .     A
C98    H108    1.083   .     S
C99    C100    1.405   1_545 A
C100   N101    1.361   .     A
C100   H109    1.082   .     S
C100   C99     1.405   1_565 A
N101   C96     1.362   1_565 A
C102   C107    1.405   .     A
C102   N103    1.363   1_545 A
N103   C104    1.361   .     A
N103   C102    1.363   1_565 A
C104   H110    1.082   .     S
C104   C105    1.404   1_565 A
C105   C106    1.403   .     A
C105   C104    1.404   1_545 A
C106   C107    1.392   .     A
C106   H111    1.083   .     S
C107   H113    1.081   .     S
C114   N119    1.359   .     A
C114   C120    1.479   .     S
C114   C115    1.409   1_554 A
C115   C116    1.406   .     A
C115   H130    1.082   .     S
C115   C114    1.409   1_556 A
C116   H126    1.083   .     S
C116   C117    1.402   1_556 A
C117   C118    1.398   .     A
C117   C116    1.402   1_554 A
C118   N119    1.352   .     A
C118   H127    1.083   .     S
C120   N121    1.360   .     A
C120   C125    1.407   1_554 A
N121   C122    1.353   .     A
C122   C123    1.399   .     A
C122   H128    1.083   .     S
C123   C124    1.405   1_554 A
C124   C125    1.406   .     A
C124   H129    1.083   .     S
C124   C123    1.405   1_556 A
C125   H131    1.082   .     S
C125   C120    1.407   1_556 A
C132   C133    1.406   .     A
C132   C138    1.474   .     S
C132   N137    1.358   1_554 A
C133   C134    1.407   .     A
C133   H148    1.082   .     S
C134   C135    1.405   .     A
C134   H144    1.083   .     S
C135   C136    1.400   .     A
C136   N137    1.351   1_554 A
C136   H145    1.083   1_554 S
N137   C132    1.358   1_556 A
N137   C136    1.351   1_556 A
C138   C143    1.407   .     A
C138   N139    1.359   1_554 A
N139   C140    1.352   .     A
N139   C138    1.359   1_556 A
C140   C141    1.398   .     A
C140   H146    1.083   .     S
C141   C142    1.403   1_556 A
C141   C45     1.469   1_556 S
C142   C143    1.406   .     A
C142   H147    1.083   .     S
C142   C141    1.403   1_554 A
C143   H149    1.082   .     S
H145   C136    1.083   1_556 S
C150   C151    1.402   .     A
C150   C156    1.478   .     S
C150   N155    1.365   1_556 A
C151   C152    1.387   .     A
C151   H166    1.083   .     S
C152   C153    1.399   .     A
C152   H162    1.084   .     S
C153   C154    1.404   1_556 A
C154   N155    1.366   .     A
C154   H163    1.082   .     S
C154   C153    1.404   1_554 A
N155   C150    1.365   1_554 A
C156   C161    1.404   .     A
C156   N157    1.363   1_556 A
N157   C158    1.363   .     A
N157   C156    1.363   1_554 A
C158   H164    1.083   .     S
C158   C159    1.401   1_554 A
C159   C160    1.397   .     A
C159   C158    1.401   1_556 A
C160   C161    1.392   .     A
C160   H165    1.084   .     S
C161   H167    1.083   .     S
C168   C169    1.404   .     A
C168   N173    1.363   1_554 A
C168   C174    1.479   1_554 S
C169   C170    1.392   .     A
C169   H184    1.083   .     S
C170   C171    1.401   .     A
C170   H180    1.084   .     S
C171   C172    1.403   1_554 A
C172   N173    1.363   .     A
C172   H181    1.082   .     S
C172   C171    1.403   1_556 A
N173   C168    1.363   1_556 A
C174   N175    1.364   .     A
C174   C168    1.479   1_556 S
C174   C179    1.403   1_556 A
N175   C176    1.365   .     A
C176   C177    1.404   .     A
C176   H182    1.082   .     S
C177   C178    1.399   .     A
C178   C179    1.389   1_556 A
C178   H183    1.084   1_556 S
C179   H185    1.083   .     S
C179   C174    1.403   1_554 A
C179   C178    1.389   1_554 A
H183   C178    1.084   1_554 S
C186   C187    1.406   .     A
C186   N191    1.359   .     A
C186   C192    1.475   .     S
C187   C188    1.405   .     A
C187   H202    1.082   .     S
C188   C189    1.406   .     A
C188   H198    1.083   .     S
C189   C190    1.400   .     A
C190   N191    1.352   .     A
C190   H199    1.082   .     S
C192   N193    1.358   .     A
C192   C197    1.407   .     A
N193   C194    1.351   .     A
C194   C195    1.401   .     A
C194   H200    1.083   1_556 S
C195   C196    1.405   .     A
C196   C197    1.406   .     A
C196   H201    1.083   .     S
C197   H203    1.082   .     S
H200   C194    1.083   1_554 S
C204   C205    1.407   .     A
C204   N209    1.359   .     A
C204   C210    1.479   .     S
C205   C206    1.407   .     A
C205   H220    1.082   .     S
C206   C207    1.406   .     A
C206   H216    1.083   .     S
C207   C208    1.400   .     A
C208   N209    1.351   .     A
C208   H217    1.083   .     S
C210   N211    1.358   .     A
C210   C215    1.409   .     A
N211   C212    1.350   .     A
C212   C213    1.401   .     A
C212   H218    1.083   .     S
C213   C214    1.405   .     A
C214   C215    1.408   .     A
C214   H219    1.083   .     S
C215   H221    1.082   .     S
