data_kag+N173+E9
_audit_creation_date              2025-01-21
_audit_creation_method            'Materials Studio'
_symmetry_space_group_name_H-M    'P1'
_symmetry_Int_Tables_number       1
_symmetry_cell_setting            triclinic
loop_
_symmetry_equiv_pos_as_xyz
  x,y,z
_cell_length_a                    42.0121
_cell_length_b                    41.1328
_cell_length_c                    18.9066
_cell_angle_alpha                 95.4561
_cell_angle_beta                  98.8444
_cell_angle_gamma                 120.2655
loop_
_atom_site_label
_atom_site_type_symbol
_atom_site_fract_x
_atom_site_fract_y
_atom_site_fract_z
_atom_site_U_iso_or_equiv
_atom_site_adp_type
_atom_site_occupancy
Gd0    Gd    0.50517   0.47418   0.98392   0.00000  Uiso   1.00
Gd1    Gd    0.55905   0.57588   0.02174   0.00000  Uiso   1.00
O2     O     0.55937   0.55688   0.12659   0.00000  Uiso   1.00
O3     O     0.50482   0.49995   0.09252   0.00000  Uiso   1.00
O4     O     0.47269   0.50219   0.01626   0.00000  Uiso   1.00
O5     O     0.50273   0.56651   1.02318   0.00000  Uiso   1.00
O6     O     0.51930   0.43125   0.94615   0.00000  Uiso   1.00
O7     O     0.51072   0.43553   0.05476   0.00000  Uiso   1.00
O8     O     0.49459   0.49188   0.88176   0.00000  Uiso   1.00
C9     C     0.51811   0.41865   1.00535   0.00000  Uiso   1.00
O10    O     0.53836   0.55493   0.90522   0.00000  Uiso   1.00
O11    O     0.56923   0.51087   1.00212   0.00000  Uiso   1.00
C12    C     0.47317   0.53392   0.01991   0.00000  Uiso   1.00
O13    O     0.60870   0.57361   0.01527   0.00000  Uiso   1.00
O14    O     0.53166   0.61054   0.03606   0.00000  Uiso   1.00
O15    O     0.57548   0.63079   0.97884   0.00000  Uiso   1.00
C16    C     0.53157   0.52822   0.14103   0.00000  Uiso   1.00
C17    C     0.55148   0.63625   0.00225   0.00000  Uiso   1.00
C18    C     0.60262   0.54017   0.01133   0.00000  Uiso   1.00
C19    C     0.51319   0.52367   0.86280   0.00000  Uiso   1.00
Gd20   Gd    0.00355   0.55933   1.00335   0.00000  Uiso   1.00
Gd21   Gd    0.06843   0.49920   0.01976   0.00000  Uiso   1.00
O22    O     0.06067   0.51402   0.13153   0.00000  Uiso   1.00
O23    O     0.02998   0.53775   0.08270   0.00000  Uiso   1.00
O24    O     0.06391   0.58551   0.06879   0.00000  Uiso   1.00
O25    O     0.08992   0.56054   1.00475   0.00000  Uiso   1.00
O26    O     0.94485   0.54195   0.95875   0.00000  Uiso   1.00
O27    O     0.96679   0.55901   0.07674   0.00000  Uiso   1.00
O28    O     0.02262   0.55609   0.89822   0.00000  Uiso   1.00
C29    C     0.93862   0.54737   0.02181   0.00000  Uiso   1.00
O30    O     0.04897   0.52605   0.93766   0.00000  Uiso   1.00
O31    O     0.97697   0.49499   0.99511   0.00000  Uiso   1.00
C32    C     0.09032   0.58946   0.03814   0.00000  Uiso   1.00
O33    O     0.00537   0.46029   0.98610   0.00000  Uiso   1.00
O34    O     0.13030   0.52922   0.03925   0.00000  Uiso   1.00
O35    O     0.09640   0.48774   0.93813   0.00000  Uiso   1.00
C36    C     0.04077   0.52831   0.13952   0.00000  Uiso   1.00
C37    C     0.12955   0.51114   0.97970   0.00000  Uiso   1.00
C38    C     0.97668   0.46342   0.98841   0.00000  Uiso   1.00
C39    C     0.03853   0.53810   0.88403   0.00000  Uiso   1.00
Gd40   Gd    0.47739   0.99400   0.98928   0.00000  Uiso   1.00
Gd41   Gd    0.58715   0.06157   0.03394   0.00000  Uiso   1.00
O42    O     0.55890   0.05585   0.12701   0.00000  Uiso   1.00
O43    O     0.51272  -0.00585   0.09255   0.00000  Uiso   1.00
O44    O     0.50375   0.05718   0.03696   0.00000  Uiso   1.00
O45    O     0.54931   0.07957   0.97773   0.00000  Uiso   1.00
O46    O     0.43158   0.93309   0.95629   0.00000  Uiso   1.00
O47    O     0.43400   0.96563   0.05484   0.00000  Uiso   1.00
O48    O     0.50534  -0.00201   0.89321   0.00000  Uiso   1.00
C49    C     0.41708   0.93301   1.01077   0.00000  Uiso   1.00
O50    O     0.55318   0.05823   0.92323   0.00000  Uiso   1.00
O51    O     0.50859   0.96497   1.02708   0.00000  Uiso   1.00
C52    C     0.52720   0.08419   0.01056   0.00000  Uiso   1.00
O53    O     0.56262   0.99811  -0.00914   0.00000  Uiso   1.00
O54    O     0.62425   0.12525   0.05666   0.00000  Uiso   1.00
O55    O     0.63416   0.09091   0.98008   0.00000  Uiso   1.00
C56    C     0.53344   0.02501   0.14121   0.00000  Uiso   1.00
C57    C     0.64374   0.12452   0.01144   0.00000  Uiso   1.00
C58    C     0.53665   0.96717   1.00416   0.00000  Uiso   1.00
C59    C     0.53016   0.02761   0.87492   0.00000  Uiso   1.00
C60    C     0.52353   0.52809   0.35588   0.00000  Uiso   1.00
N61    N     0.49804   0.49711   0.30251   0.00000  Uiso   1.00
N62    N     0.50034   0.49756   0.23339   0.00000  Uiso   1.00
C63    C     0.52834   0.52885   0.21570   0.00000  Uiso   1.00
N64    N     0.55335   0.56023   0.26861   0.00000  Uiso   1.00
N65    N     0.55080   0.55995   0.33774   0.00000  Uiso   1.00
C66    C     0.52145   0.52731   0.43185   0.00000  Uiso   1.00
N67    N     0.54144   0.56038   0.48278   0.00000  Uiso   1.00
N68    N     0.53800   0.56038   0.55150   0.00000  Uiso   1.00
C69    C     0.51447   0.52723   0.57141   0.00000  Uiso   1.00
N70    N     0.49511   0.49396   0.52094   0.00000  Uiso   1.00
N71    N     0.49842   0.49398   0.45212   0.00000  Uiso   1.00
C72    C     0.51109   0.52691   0.64645   0.00000  Uiso   1.00
N73    N     0.48961   0.49304   0.66662   0.00000  Uiso   1.00
N74    N     0.48838   0.49190   0.73607   0.00000  Uiso   1.00
C75    C     0.50825   0.52485   0.78696   0.00000  Uiso   1.00
N76    N     0.52913   0.55884   0.76672   0.00000  Uiso   1.00
N77    N     0.53043   0.55998   0.69735   0.00000  Uiso   1.00
C78    C     0.04702   0.53496   0.66460   0.00000  Uiso   1.00
N79    N     0.02995   0.50171   0.69029   0.00000  Uiso   1.00
N80    N     0.02955   0.50239   0.76113   0.00000  Uiso   1.00
C81    C     0.04664   0.53630   0.80980   0.00000  Uiso   1.00
N82    N     0.06374   0.56953   0.78390   0.00000  Uiso   1.00
N83    N     0.06437   0.56888   0.71332   0.00000  Uiso   1.00
C84    C     0.04350   0.53452   0.58426   0.00000  Uiso   1.00
N85    N     0.06250   0.56759   0.55925   0.00000  Uiso   1.00
N86    N     0.05792   0.56748   0.48756   0.00000  Uiso   1.00
C87    C     0.03379   0.53444   0.43719   0.00000  Uiso   1.00
N88    N     0.01470   0.50134   0.46220   0.00000  Uiso   1.00
N89    N     0.01938   0.50143   0.53395   0.00000  Uiso   1.00
C90    C     0.03078   0.53427   0.35683   0.00000  Uiso   1.00
N91    N     0.00795   0.50105   0.30619   0.00000  Uiso   1.00
N92    N     0.00862   0.50006   0.23550   0.00000  Uiso   1.00
C93    C     0.03172   0.53231   0.21169   0.00000  Uiso   1.00
N94    N     0.05423   0.56559   0.26211   0.00000  Uiso   1.00
N95    N     0.05340   0.56668   0.33276   0.00000  Uiso   1.00
C96    C     0.51709   0.02702   0.35222   0.00000  Uiso   1.00
N97    N     0.50104   0.99312   0.30450   0.00000  Uiso   1.00
N98    N     0.50570   0.99244   0.23652   0.00000  Uiso   1.00
C99    C     0.52702   0.02566   0.21449   0.00000  Uiso   1.00
N100   N     0.54259   0.05961   0.26184   0.00000  Uiso   1.00
N101   N     0.53781   0.06027   0.32974   0.00000  Uiso   1.00
C102   C     0.51724   0.02755   0.42921   0.00000  Uiso   1.00
N103   N     0.53513   0.06152   0.47757   0.00000  Uiso   1.00
N104   N     0.53864   0.06230   0.54897   0.00000  Uiso   1.00
C105   C     0.52448   0.02912   0.57430   0.00000  Uiso   1.00
N106   N     0.50802   0.99525   0.52603   0.00000  Uiso   1.00
N107   N     0.50457   0.99450   0.45469   0.00000  Uiso   1.00
C108   C     0.52444   0.02937   0.65187   0.00000  Uiso   1.00
N109   N     0.50515   0.99581   0.67455   0.00000  Uiso   1.00
N110   N     0.50713   0.99536   0.74543   0.00000  Uiso   1.00
C111   C     0.52871   0.02842   0.79647   0.00000  Uiso   1.00
N112   N     0.54656   0.06225   0.77343   0.00000  Uiso   1.00
N113   N     0.54422   0.06273   0.70235   0.00000  Uiso   1.00
C114   C     0.37080   0.52944   0.99581   0.00000  Uiso   1.00
N115   N     0.37160   0.49722   0.97783   0.00000  Uiso   1.00
N116   N     0.40433   0.49859   0.98944   0.00000  Uiso   1.00
C117   C     0.43748   0.53217   0.01922   0.00000  Uiso   1.00
N118   N     0.43676   0.56447   0.03775   0.00000  Uiso   1.00
N119   N     0.40392   0.56303   0.02685   0.00000  Uiso   1.00
C120   C     0.33468   0.52782   0.98250   0.00000  Uiso   1.00
N121   N     0.33306   0.55826   0.01122   0.00000  Uiso   1.00
N122   N     0.30011   0.55638   0.00219   0.00000  Uiso   1.00
C123   C     0.26758   0.52421   0.96344   0.00000  Uiso   1.00
N124   N     0.26908   0.49359   0.93480   0.00000  Uiso   1.00
N125   N     0.30210   0.49540   0.94419   0.00000  Uiso   1.00
C126   C     0.23144   0.52231   0.95814   0.00000  Uiso   1.00
N127   N     0.19812   0.49142   0.91776   0.00000  Uiso   1.00
N128   N     0.16524   0.48845   0.92105   0.00000  Uiso   1.00
C129   C     0.16473   0.51627   0.96486   0.00000  Uiso   1.00
N130   N     0.19805   0.54733   0.00377   0.00000  Uiso   1.00
N131   N     0.23075   0.55046  -0.00000   0.00000  Uiso   1.00
C132   C     0.87577   0.36261  -0.00814   0.00000  Uiso   1.00
N133   N     0.87683   0.39616   0.99109   0.00000  Uiso   1.00
N134   N     0.90871   0.42815   0.98862   0.00000  Uiso   1.00
C135   C     0.94069   0.42777   0.98622   0.00000  Uiso   1.00
N136   N     0.93960   0.39425  -0.01302   0.00000  Uiso   1.00
N137   N     0.90777   0.36230  -0.01055   0.00000  Uiso   1.00
C138   C     0.84035   0.32692  -0.00651   0.00000  Uiso   1.00
N139   N     0.83861   0.29283  -0.01204   0.00000  Uiso   1.00
N140   N     0.80620   0.26030  -0.01437   0.00000  Uiso   1.00
C141   C     0.77425   0.26058  -0.01111   0.00000  Uiso   1.00
N142   N     0.77617   0.29474  -0.00394   0.00000  Uiso   1.00
N143   N     0.80852   0.32724  -0.00209   0.00000  Uiso   1.00
C144   C     0.73848   0.22472  -0.01263   0.00000  Uiso   1.00
N145   N     0.70976   0.22603   1.00926   0.00000  Uiso   1.00
N146   N     0.67885   0.19397   1.01477   0.00000  Uiso   1.00
C147   C     0.67539   0.15936   0.99775   0.00000  Uiso   1.00
N148   N     0.70324   0.15781  -0.02739   0.00000  Uiso   1.00
N149   N     0.73433   0.18990  -0.03209   0.00000  Uiso   1.00
C150   C     0.83303   0.53194   0.03120   0.00000  Uiso   1.00
N151   N     0.86093   0.54630   0.09361   0.00000  Uiso   1.00
N152   N     0.89462   0.55072   0.09200   0.00000  Uiso   1.00
C153   C     0.90150   0.54102   0.02778   0.00000  Uiso   1.00
N154   N     0.87360   0.52666   0.96605   0.00000  Uiso   1.00
N155   N     0.84012   0.52218   0.96768   0.00000  Uiso   1.00
C156   C     0.79620   0.52850   0.03010   0.00000  Uiso   1.00
N157   N     0.76935   0.51434   0.96626   0.00000  Uiso   1.00
N158   N     0.73687   0.51326   0.96328   0.00000  Uiso   1.00
C159   C     0.73003   0.52643   0.02425   0.00000  Uiso   1.00
N160   N     0.75669   0.54019   0.08809   0.00000  Uiso   1.00
N161   N     0.78910   0.54118   0.09111   0.00000  Uiso   1.00
C162   C     0.69535   0.52764   0.02160   0.00000  Uiso   1.00
N163   N     0.69213   0.54640   0.08057   0.00000  Uiso   1.00
N164   N     0.66218   0.54994   0.07783   0.00000  Uiso   1.00
C165   C     0.63421   0.53452   0.01606   0.00000  Uiso   1.00
N166   N     0.63683   0.51510   0.95749   0.00000  Uiso   1.00
N167   N     0.66701   0.51191   0.95997   0.00000  Uiso   1.00
C168   C     0.32013   0.83205   0.03003   0.00000  Uiso   1.00
N169   N     0.33173   0.83584   0.96657   0.00000  Uiso   1.00
N170   N     0.36279   0.86779   0.96153   0.00000  Uiso   1.00
C171   C     0.38351   0.89761   0.01952   0.00000  Uiso   1.00
N172   N     0.37265   0.89365   0.08390   0.00000  Uiso   1.00
N173   N     0.34153   0.86143   0.08908   0.00000  Uiso   1.00
C174   C     0.28375   0.79732   0.03179   0.00000  Uiso   1.00
N175   N     0.27132   0.79107   0.09433   0.00000  Uiso   1.00
N176   N     0.23850   0.75936   0.09402   0.00000  Uiso   1.00
C177   C     0.21684   0.73280   0.03132   0.00000  Uiso   1.00
N178   N     0.22904   0.73928   0.96882   0.00000  Uiso   1.00
N179   N     0.26172   0.77093   0.96907   0.00000  Uiso   1.00
C180   C     0.18216   0.69644   0.03184   0.00000  Uiso   1.00
N181   N     0.16558   0.66680   0.97353   0.00000  Uiso   1.00
N182   N     0.13578   0.63302   0.97556   0.00000  Uiso   1.00
C183   C     0.12101   0.62771   0.03535   0.00000  Uiso   1.00
N184   N     0.13717   0.65740   0.09348   0.00000  Uiso   1.00
N185   N     0.16735   0.69114   0.09181   0.00000  Uiso   1.00
C186   C     0.54510   0.87038   0.98922   0.00000  Uiso   1.00
N187   N     0.55220   0.89182   0.05548   0.00000  Uiso   1.00
N188   N     0.55015   0.92315   0.06024   0.00000  Uiso   1.00
C189   C     0.54100   0.93410  -0.00118   0.00000  Uiso   1.00
N190   N     0.53519   0.91351   0.93261   0.00000  Uiso   1.00
N191   N     0.53713   0.88206   0.92784   0.00000  Uiso   1.00
C192   C     0.54430   0.83434   0.98514   0.00000  Uiso   1.00
N193   N     0.54228   0.81442   0.92122   0.00000  Uiso   1.00
N194   N     0.54220   0.78187   0.91967   0.00000  Uiso   1.00
C195   C     0.54373   0.76812   0.98187   0.00000  Uiso   1.00
N196   N     0.54472   0.78762   0.04493   0.00000  Uiso   1.00
N197   N     0.54514   0.82015   0.04658   0.00000  Uiso   1.00
C198   C     0.54374   0.73254   0.98275   0.00000  Uiso   1.00
N199   N     0.53321   0.71383   0.03808   0.00000  Uiso   1.00
N200   N     0.53440   0.68237   0.04243   0.00000  Uiso   1.00
C201   C     0.54690   0.66878   0.99238   0.00000  Uiso   1.00
N202   N     0.55697   0.68709   0.93615   0.00000  Uiso   1.00
N203   N     0.55521   0.71835   0.93115   0.00000  Uiso   1.00
C204   C     0.52831   0.32346   0.02309   0.00000  Uiso   1.00
N205   N     0.52693   0.34355   0.08259   0.00000  Uiso   1.00
N206   N     0.52439   0.37438   0.07788   0.00000  Uiso   1.00
C207   C     0.52338   0.38632   0.01346   0.00000  Uiso   1.00
N208   N     0.52548   0.36663   0.95446   0.00000  Uiso   1.00
N209   N     0.52789   0.33581   0.95910   0.00000  Uiso   1.00
C210   C     0.52960   0.28858   0.02682   0.00000  Uiso   1.00
N211   N     0.53206   0.26992   0.96692   0.00000  Uiso   1.00
N212   N     0.53444   0.23902   0.96957   0.00000  Uiso   1.00
C213   C     0.53435   0.22539   0.03205   0.00000  Uiso   1.00
N214   N     0.53090   0.24342   0.09193   0.00000  Uiso   1.00
N215   N     0.52874   0.27462   0.08938   0.00000  Uiso   1.00
C216   C     0.53626   0.19062   0.03171   0.00000  Uiso   1.00
N217   N     0.52444   0.16867   0.08241   0.00000  Uiso   1.00
N218   N     0.52131   0.13455   0.07521   0.00000  Uiso   1.00
C219   C     0.53002   0.12126   0.01746   0.00000  Uiso   1.00
N220   N     0.54313   0.14376   0.96806   0.00000  Uiso   1.00
N221   N     0.54583   0.17763   0.97477   0.00000  Uiso   1.00
loop_
_geom_bond_atom_site_label_1
_geom_bond_atom_site_label_2
_geom_bond_distance
_geom_bond_site_symmetry_2
_ccdc_geom_bond_type
Gd0    O6      2.220   .     S
Gd0    O8      2.188   .     S
Gd0    O11     2.272   .     S
Gd0    O3      2.225   1_556 S
Gd0    O4      2.296   1_556 S
Gd0    O7      2.249   1_556 S
Gd1    O2      2.199   .     S
Gd1    O13     2.156   .     S
Gd1    O14     2.260   .     S
Gd1    O5      2.202   1_554 S
Gd1    O10     2.156   1_554 S
Gd1    O15     2.277   1_554 S
O2     C16     1.265   .     A
O3     C16     1.273   .     A
O3     Gd0     2.225   1_554 S
O4     C12     1.290   .     A
O4     Gd0     2.296   1_554 S
O5     Gd1     2.202   1_556 S
O5     C12     1.275   1_556 A
O6     C9      1.275   .     A
O7     Gd0     2.249   1_554 S
O7     C9      1.278   1_554 A
O8     C19     1.263   .     A
C9     O7      1.278   1_556 A
C9     C207    1.471   1_556 S
O10    C19     1.260   .     A
O10    Gd1     2.156   1_556 S
O11    C18     1.277   1_556 A
C12    C117    1.462   .     S
C12    O5      1.275   1_554 A
O13    C18     1.258   .     A
O14    C17     1.275   .     A
O15    Gd1     2.277   1_556 S
O15    C17     1.269   1_556 A
C16    C63     1.438   .     S
C17    O15     1.269   1_554 A
C17    C201    1.469   1_554 S
C18    C165    1.450   .     S
C18    O11     1.277   1_554 A
C19    C75     1.426   .     S
Gd20   O28     2.271   .     S
Gd20   O23     2.237   1_556 S
Gd20   O24     2.269   1_556 S
Gd20   O26     2.185   1_455 S
Gd20   O27     2.225   1_456 S
Gd20   O31     2.272   1_455 S
Gd21   O22     2.261   .     S
Gd21   O34     2.191   .     S
Gd21   O25     2.276   1_554 S
Gd21   O30     2.268   1_554 S
Gd21   O33     2.236   1_554 S
Gd21   O35     2.228   1_554 S
O22    C36     1.258   .     A
O23    C36     1.272   .     A
O23    Gd20    2.237   1_554 S
O24    C32     1.276   .     A
O24    Gd20    2.269   1_554 S
O25    Gd21    2.276   1_556 S
O25    C32     1.284   1_556 A
O26    Gd20    2.185   1_655 S
O26    C29     1.282   1_556 A
O27    C29     1.290   .     A
O27    Gd20    2.225   1_654 S
O28    C39     1.258   .     A
C29    C153    1.470   .     S
C29    O26     1.282   1_554 A
O30    C39     1.282   .     A
O30    Gd21    2.268   1_556 S
O31    C38     1.286   .     A
O31    Gd20    2.272   1_655 S
C32    C183    1.460   .     S
C32    O25     1.284   1_554 A
O33    Gd21    2.236   1_556 S
O33    C38     1.281   1_455 A
O34    C37     1.276   1_554 A
O35    C37     1.285   .     A
O35    Gd21    2.228   1_556 S
C36    C93     1.488   .     S
C37    C129    1.460   .     S
C37    O34     1.276   1_556 A
C38    C135    1.474   .     S
C38    O33     1.281   1_655 A
C39    C81     1.498   .     S
Gd40   O46     2.200   .     S
Gd40   O51     2.260   .     S
Gd40   O43     2.261   1_566 S
Gd40   O44     2.267   1_566 S
Gd40   O47     2.247   1_556 S
Gd40   O48     2.285   1_565 S
Gd41   O42     2.236   .     S
Gd41   O54     2.222   .     S
Gd41   O45     2.241   1_554 S
Gd41   O50     2.295   1_554 S
Gd41   O53     2.273   1_545 S
Gd41   O55     2.201   1_554 S
O42    C56     1.269   .     A
O43    C56     1.278   .     A
O43    Gd40    2.261   1_544 S
O44    C52     1.268   .     A
O44    Gd40    2.267   1_544 S
O45    Gd41    2.241   1_556 S
O45    C52     1.272   1_556 A
O46    C49     1.274   .     A
O47    Gd40    2.247   1_554 S
O47    C49     1.282   1_554 A
O48    C59     1.266   .     A
O48    Gd40    2.285   1_545 S
C49    O47     1.282   1_556 A
C49    C171    1.478   1_556 S
O50    C59     1.280   .     A
O50    Gd41    2.295   1_556 S
O51    C58     1.281   .     A
C52    C219    1.460   .     S
C52    O45     1.272   1_554 A
O53    Gd41    2.273   1_565 S
O53    C58     1.273   1_554 A
O54    C57     1.280   .     A
O55    Gd41    2.201   1_556 S
O55    C57     1.278   1_556 A
C56    C99     1.452   .     S
C57    O55     1.278   1_554 A
C57    C147    1.465   1_554 S
C58    O53     1.273   1_556 A
C58    C189    1.457   1_556 S
C59    C111    1.479   .     S
C60    N61     1.355   .     A
C60    N65     1.357   .     A
C60    C66     1.455   .     S
N61    N62     1.326   .     A
N62    C63     1.352   .     A
C63    N64     1.355   .     A
N64    N65     1.328   .     A
C66    N67     1.354   .     A
C66    N71     1.356   .     A
N67    N68     1.329   .     A
N68    C69     1.354   .     A
C69    N70     1.355   .     A
C69    C72     1.448   .     S
N70    N71     1.330   .     A
C72    N73     1.357   .     A
C72    N77     1.354   .     A
N73    N74     1.326   .     A
N74    C75     1.351   .     A
C75    N76     1.356   .     A
N76    N77     1.325   .     A
C78    N79     1.366   .     A
C78    N83     1.360   .     A
C78    C84     1.501   .     S
N79    N80     1.340   .     A
N80    C81     1.360   .     A
C81    N82     1.367   .     A
N82    N83     1.337   .     A
C84    N85     1.362   .     A
C84    N89     1.361   .     A
N85    N86     1.339   .     A
N86    C87     1.360   .     A
C87    N88     1.363   .     A
C87    C90     1.504   .     S
N88    N89     1.340   .     A
C90    N91     1.361   .     A
C90    N95     1.363   .     A
N91    N92     1.338   .     A
N92    C93     1.362   .     A
C93    N94     1.359   .     A
N94    N95     1.339   .     A
C96    N101    1.354   .     A
C96    C102    1.453   .     S
C96    N97     1.356   1_545 A
N97    N98     1.329   .     A
N97    C96     1.356   1_565 A
N98    C99     1.353   1_565 A
C99    N100    1.357   .     A
C99    N98     1.353   1_545 A
N100   N101    1.329   .     A
C102   N103    1.356   .     A
C102   N107    1.356   1_545 A
N103   N104    1.331   .     A
N104   C105    1.356   .     A
C105   C108    1.466   .     S
C105   N106    1.358   1_545 A
N106   N107    1.330   .     A
N106   C105    1.358   1_565 A
N107   C102    1.356   1_565 A
C108   N113    1.357   .     A
C108   N109    1.356   1_545 A
N109   N110    1.332   .     A
N109   C108    1.356   1_565 A
N110   C111    1.357   1_565 A
C111   N112    1.361   .     A
C111   N110    1.357   1_545 A
N112   N113    1.335   .     A
C114   N115    1.355   .     A
C114   C120    1.466   .     S
C114   N119    1.359   1_556 A
N115   N116    1.330   .     A
N116   C117    1.355   1_556 A
C117   N118    1.358   .     A
C117   N116    1.355   1_554 A
N118   N119    1.333   .     A
N119   C114    1.359   1_554 A
C120   N125    1.359   .     A
C120   N121    1.355   1_556 A
N121   N122    1.330   .     A
N121   C120    1.355   1_554 A
N122   C123    1.357   1_554 A
C123   N124    1.358   .     A
C123   C126    1.467   .     S
C123   N122    1.357   1_556 A
N124   N125    1.334   .     A
C126   N127    1.360   .     A
C126   N131    1.354   1_556 A
N127   N128    1.336   .     A
N128   C129    1.359   .     A
C129   N130    1.354   1_556 A
N130   N131    1.328   .     A
N130   C129    1.354   1_554 A
N131   C126    1.354   1_554 A
C132   N137    1.358   .     A
C132   C138    1.480   .     S
C132   N133    1.360   1_554 A
N133   N134    1.335   .     A
N133   C132    1.360   1_556 A
N134   C135    1.359   .     A
C135   N136    1.358   1_556 A
N136   N137    1.333   .     A
N136   C135    1.358   1_554 A
C138   N139    1.360   .     A
C138   N143    1.359   .     A
N139   N140    1.334   .     A
N140   C141    1.359   .     A
C141   N142    1.358   .     A
C141   C144    1.476   .     S
N142   N143    1.334   .     A
C144   N149    1.359   .     A
C144   N145    1.358   1_554 A
N145   N146    1.333   .     A
N145   C144    1.358   1_556 A
N146   C147    1.357   .     A
C147   N148    1.356   1_556 A
C147   C57     1.465   1_556 S
N148   N149    1.333   .     A
N148   C147    1.356   1_554 A
C150   N151    1.363   .     A
C150   C156    1.478   .     S
C150   N155    1.353   1_554 A
N151   N152    1.339   .     A
N152   C153    1.360   .     A
C153   N154    1.355   1_554 A
N154   N155    1.329   .     A
N154   C153    1.355   1_556 A
N155   C150    1.353   1_556 A
C156   N161    1.356   .     A
C156   N157    1.361   1_554 A
N157   N158    1.335   .     A
N157   C156    1.361   1_556 A
N158   C159    1.358   1_556 A
C159   N160    1.359   .     A
C159   C162    1.476   .     S
C159   N158    1.358   1_554 A
N160   N161    1.334   .     A
C162   N163    1.358   .     A
C162   N167    1.359   1_554 A
N163   N164    1.332   .     A
N164   C165    1.354   .     A
C165   N166    1.354   1_554 A
N166   N167    1.333   .     A
N166   C165    1.354   1_556 A
N167   C162    1.359   1_556 A
C168   N173    1.362   .     A
C168   C174    1.484   .     S
C168   N169    1.357   1_554 A
N169   N170    1.331   .     A
N169   C168    1.357   1_556 A
N170   C171    1.356   1_556 A
C171   N172    1.360   .     A
C171   N170    1.356   1_554 A
C171   C49     1.478   1_554 S
N172   N173    1.339   .     A
C174   N175    1.360   .     A
C174   N179    1.359   1_554 A
N175   N176    1.336   .     A
N176   C177    1.359   .     A
C177   C180    1.473   .     S
C177   N178    1.356   1_554 A
N178   N179    1.332   .     A
N178   C177    1.356   1_556 A
N179   C174    1.359   1_556 A
C180   N185    1.359   .     A
C180   N181    1.356   1_554 A
N181   N182    1.331   .     A
N181   C180    1.356   1_556 A
N182   C183    1.355   1_556 A
C183   N184    1.356   .     A
C183   N182    1.355   1_554 A
N184   N185    1.335   .     A
C186   N191    1.356   .     A
C186   C192    1.460   .     S
C186   N187    1.359   1_556 A
N187   N188    1.330   .     A
N187   C186    1.359   1_554 A
N188   C189    1.355   .     A
C189   N190    1.356   1_554 A
C189   C58     1.457   1_554 S
N190   N191    1.332   .     A
N190   C189    1.356   1_556 A
C192   N193    1.360   .     A
C192   N197    1.352   1_556 A
N193   N194    1.335   .     A
N194   C195    1.359   .     A
C195   C198    1.465   .     S
C195   N196    1.355   1_556 A
N196   N197    1.327   .     A
N196   C195    1.355   1_554 A
N197   C192    1.352   1_554 A
C198   N203    1.358   .     A
C198   N199    1.354   1_556 A
N199   N200    1.330   .     A
N199   C198    1.354   1_554 A
N200   C201    1.354   1_554 A
C201   N202    1.359   .     A
C201   N200    1.354   1_556 A
C201   C17     1.469   1_556 S
N202   N203    1.336   .     A
C204   N205    1.358   .     A
C204   C210    1.471   .     S
C204   N209    1.357   1_554 A
N205   N206    1.335   .     A
N206   C207    1.358   .     A
C207   N208    1.356   1_554 A
C207   C9      1.471   1_554 S
N208   N209    1.331   .     A
N208   C207    1.356   1_556 A
N209   C204    1.357   1_556 A
C210   N215    1.361   .     A
C210   N211    1.354   1_554 A
N211   N212    1.329   .     A
N211   C210    1.354   1_556 A
N212   C213    1.355   1_556 A
C213   N214    1.361   .     A
C213   C216    1.472   .     S
C213   N212    1.355   1_554 A
N214   N215    1.336   .     A
C216   N217    1.356   .     A
C216   N221    1.359   1_554 A
N217   N218    1.334   .     A
N218   C219    1.355   .     A
C219   N220    1.357   1_554 A
N220   N221    1.331   .     A
N220   C219    1.357   1_556 A
N221   C216    1.359   1_556 A
