data_kag+N139+E225
_audit_creation_date              2025-01-21
_audit_creation_method            'Materials Studio'
_symmetry_space_group_name_H-M    'P1'
_symmetry_Int_Tables_number       1
_symmetry_cell_setting            triclinic
loop_
_symmetry_equiv_pos_as_xyz
  x,y,z
_cell_length_a                    42.0380
_cell_length_b                    35.3839
_cell_length_c                    23.5633
_cell_angle_alpha                 91.1335
_cell_angle_beta                  88.0728
_cell_angle_gamma                 120.8527
loop_
_atom_site_label
_atom_site_type_symbol
_atom_site_fract_x
_atom_site_fract_y
_atom_site_fract_z
_atom_site_U_iso_or_equiv
_atom_site_adp_type
_atom_site_occupancy
C0     C     0.51816   0.49396   0.81407   0.00000  Uiso   1.00
Sm1    Sm    0.47944   0.50423   0.10436   0.00000  Uiso   1.00
Sm2    Sm    0.52948   0.50024   0.92380   0.00000  Uiso   1.00
C3     C     0.50709   0.44888   0.04358   0.00000  Uiso   1.00
C4     C     0.58974   0.50139   0.95406   0.00000  Uiso   1.00
O5     O     0.51615   0.53916   0.17629   0.00000  Uiso   1.00
O6     O     0.46075   0.48418   0.19387   0.00000  Uiso   1.00
O7     O     0.51006   0.54930   0.93605   0.00000  Uiso   1.00
O8     O     0.51247   0.53790   0.02490   0.00000  Uiso   1.00
O9     O     0.42672   0.47111   1.05763   0.00000  Uiso   1.00
O10    O     0.44260   0.53229   0.10147   0.00000  Uiso   1.00
O11    O     0.49326   0.46822   0.85028   0.00000  Uiso   1.00
O12    O     0.54891   0.52332   0.83534   0.00000  Uiso   1.00
O13    O     0.50134   0.45795   0.09411   0.00000  Uiso   1.00
O14    O     0.49646   0.46267   1.00291   0.00000  Uiso   1.00
O15    O     0.58236   0.53098  -0.03011   0.00000  Uiso   1.00
O16    O     0.56560   0.47116   0.92214   0.00000  Uiso   1.00
C17    C     0.49169   0.51445   0.21368   0.00000  Uiso   1.00
C18    C     0.50530   0.55733   0.98742   0.00000  Uiso   1.00
C19    C     0.41876   0.50069   0.07076   0.00000  Uiso   1.00
C20    C     1.01955   0.48731   0.19669   0.00000  Uiso   1.00
Sm21   Sm    0.97498   0.49822   0.91197   0.00000  Uiso   1.00
Sm22   Sm    0.02944   0.49707   0.08573   0.00000  Uiso   1.00
C23    C     0.04488   0.55915   0.97837   0.00000  Uiso   1.00
C24    C     0.09672   0.51846   0.04982   0.00000  Uiso   1.00
O25    O     0.99271   0.48271   0.82904   0.00000  Uiso   1.00
O26    O    -0.02691   0.52857   0.83137   0.00000  Uiso   1.00
O27    O     0.97117   0.44082   0.06969   0.00000  Uiso   1.00
O28    O     0.98230   0.45934   0.98047   0.00000  Uiso   1.00
O29    O     0.93767   0.51036  -0.03129   0.00000  Uiso   1.00
O30    O     0.91361   0.45533   0.91034   0.00000  Uiso   1.00
O31    O     0.01205   0.51257   0.16912   0.00000  Uiso   1.00
O32    O     1.03186   0.46694   0.16615   0.00000  Uiso   1.00
O33    O     0.03332   0.55418   0.92803   0.00000  Uiso   1.00
O34    O     0.02175   0.53544   0.01708   0.00000  Uiso   1.00
O35    O     0.06745   0.48534   1.02998   0.00000  Uiso   1.00
O36    O     0.09076   0.54082   0.08762   0.00000  Uiso   1.00
C37    C    -0.01430   0.50830   0.80123   0.00000  Uiso   1.00
C38    C     0.95929   0.43584   0.01949   0.00000  Uiso   1.00
C39    C     0.90814   0.47750   0.94907   0.00000  Uiso   1.00
C40    C     0.47700  -0.01694   0.19269   0.00000  Uiso   1.00
Sm41   Sm    0.53225   0.03384   0.90489   0.00000  Uiso   1.00
Sm42   Sm    0.47220   0.96973   0.08190   0.00000  Uiso   1.00
C43    C     0.50377   0.94661   0.96740   0.00000  Uiso   1.00
C44    C     0.41669   0.89272   0.05025   0.00000  Uiso   1.00
O45    O     0.50319   0.01944   0.82287   0.00000  Uiso   1.00
O46    O     0.56057   1.03669   0.82216   0.00000  Uiso   1.00
O47    O     0.48819   0.04043   0.06497   0.00000  Uiso   1.00
O48    O     0.49170   0.02566   0.97592   0.00000  Uiso   1.00
O49    O     0.57992   0.07058  -0.03811   0.00000  Uiso   1.00
O50    O     0.56449   0.10720   0.90835   0.00000  Uiso   1.00
O51    O     0.50454   0.98853   0.16120   0.00000  Uiso   1.00
O52    O     0.44704  -0.02934   0.16620   0.00000  Uiso   1.00
O53    O     0.51336   0.96213   0.91732   0.00000  Uiso   1.00
O54    O     0.51022   0.97368   0.00814   0.00000  Uiso   1.00
O55    O     0.42200   0.92923   1.03110   0.00000  Uiso   1.00
O56    O     0.44063   0.89644   0.08571   0.00000  Uiso   1.00
C57    C     0.53174   1.02582   0.79334   0.00000  Uiso   1.00
C58    C     0.49580   0.05366   0.01378   0.00000  Uiso   1.00
C59    C     0.58649   0.10835   0.94567   0.00000  Uiso   1.00
C60    C     0.49877   0.52064   0.27504   0.00000  Uiso   1.00
C61    C     0.47129   0.49313   0.31482   0.00000  Uiso   1.00
C62    C     0.47810   0.49929   0.37293   0.00000  Uiso   1.00
C63    C     0.51284   0.53272   0.39211   0.00000  Uiso   1.00
C64    C     0.53982   0.56066   0.35239   0.00000  Uiso   1.00
C65    C     0.53304   0.55457   0.29433   0.00000  Uiso   1.00
C66    C     0.50607   0.50403   0.48528   0.00000  Uiso   1.00
H67    H     0.56673   0.54369   0.72921   0.00000  Uiso   1.00
H68    H     0.55716   0.53442   0.62699   0.00000  Uiso   1.00
H69    H     0.44637   0.42509   0.65725   0.00000  Uiso   1.00
H70    H     0.45600   0.43364   0.75988   0.00000  Uiso   1.00
H71    H     0.52188   0.54251   0.55887   0.00000  Uiso   1.00
O72    O     0.49365   0.47214   0.57633   0.00000  Uiso   1.00
O73    O     0.52081   0.54107   0.45001   0.00000  Uiso   1.00
C74    C     0.51198   0.48965   0.75243   0.00000  Uiso   1.00
C75    C     0.54016   0.51804   0.71408   0.00000  Uiso   1.00
C76    C     0.53453   0.51307   0.65562   0.00000  Uiso   1.00
C77    C     0.50028   0.47991   0.63460   0.00000  Uiso   1.00
C78    C     0.47251   0.45131   0.67291   0.00000  Uiso   1.00
C79    C     0.47809   0.45625   0.73131   0.00000  Uiso   1.00
C80    C     0.50891   0.50937   0.54133   0.00000  Uiso   1.00
H81    H     0.45604   0.47844   0.40268   0.00000  Uiso   1.00
H82    H     0.56632   0.58709   0.36660   0.00000  Uiso   1.00
H83    H     0.44445   0.46709   0.30111   0.00000  Uiso   1.00
H84    H     0.49307   0.47084   0.46788   0.00000  Uiso   1.00
H85    H     0.55460   0.57653   0.26459   0.00000  Uiso   1.00
C86    C    -0.00831   0.51403   0.73914   0.00000  Uiso   1.00
C87    C     0.00338   0.48913   0.70735   0.00000  Uiso   1.00
C88    C     0.00922   0.49471   0.64860   0.00000  Uiso   1.00
C89    C     0.00297   0.52500   0.62040   0.00000  Uiso   1.00
C90    C    -0.00802   0.55034   0.65239   0.00000  Uiso   1.00
C91    C    -0.01395   0.54470   0.71112   0.00000  Uiso   1.00
C92    C     0.00120   0.49655   0.52693   0.00000  Uiso   1.00
H93    H    -0.00157   0.53087   0.27131   0.00000  Uiso   1.00
H94    H    -0.00954   0.52223   0.37428   0.00000  Uiso   1.00
H95    H     1.02186   0.42378   0.36595   0.00000  Uiso   1.00
H96    H     1.02940   0.43185   0.26243   0.00000  Uiso   1.00
H97    H     0.02519   0.53579   0.45495   0.00000  Uiso   1.00
O98    O     1.00164   0.46588   0.43707   0.00000  Uiso   1.00
O99    O     0.00965   0.53303   0.56174   0.00000  Uiso   1.00
C100   C     1.01476   0.48225   0.25897   0.00000  Uiso   1.00
C101   C     0.00389   0.50761   0.29150   0.00000  Uiso   1.00
C102   C    -0.00019   0.50306   0.35055   0.00000  Uiso   1.00
C103   C     1.00692   0.47326   0.37819   0.00000  Uiso   1.00
C104   C     1.01703   0.44744   0.34547   0.00000  Uiso   1.00
C105   C     1.02124   0.45207   0.28649   0.00000  Uiso   1.00
C106   C     0.01029   0.50248   0.47174   0.00000  Uiso   1.00
H107   H     1.01924   0.47593   0.62556   0.00000  Uiso   1.00
H108   H    -0.01220   0.57439   0.63153   0.00000  Uiso   1.00
H109   H     1.00823   0.46550   0.72794   0.00000  Uiso   1.00
H110   H    -0.01377   0.46319   0.54354   0.00000  Uiso   1.00
H111   H    -0.02271   0.56456   0.73465   0.00000  Uiso   1.00
C112   C     0.47950  -0.00945   0.25478   0.00000  Uiso   1.00
C113   C     0.51231   0.00209   0.28272   0.00000  Uiso   1.00
C114   C     0.51462   0.00951   0.34143   0.00000  Uiso   1.00
C115   C     0.48392   0.00509   0.37335   0.00000  Uiso   1.00
C116   C     0.45156  -0.00556   0.34516   0.00000  Uiso   1.00
C117   C     0.44914  -0.01320   0.28659   0.00000  Uiso   1.00
C118   C     0.50571   1.00209   0.46488   0.00000  Uiso   1.00
H119   H     0.47445   1.00406   0.72307   0.00000  Uiso   1.00
H120   H     0.47319   0.99260   0.62039   0.00000  Uiso   1.00
H121   H     0.58656   1.02333   0.61967   0.00000  Uiso   1.00
H122   H     0.58789   1.03442   0.72290   0.00000  Uiso   1.00
H123   H     0.49975   1.03349   0.53695   0.00000  Uiso   1.00
O124   O     0.53085   1.00118   0.55306   0.00000  Uiso   1.00
O125   O     0.48524   0.01432   0.43185   0.00000  Uiso   1.00
C126   C     0.53137   1.02054   0.73090   0.00000  Uiso   1.00
C127   C     0.49928   1.00897   0.70091   0.00000  Uiso   1.00
C128   C     0.49870   1.00292   0.64201   0.00000  Uiso   1.00
C129   C     0.53050   1.00889   0.61184   0.00000  Uiso   1.00
C130   C     0.56221   1.01967   0.64202   0.00000  Uiso   1.00
C131   C     0.56286   1.02589   0.70086   0.00000  Uiso   1.00
C132   C     0.51067   1.01357   0.51960   0.00000  Uiso   1.00
H133   H     0.54060   0.01964   0.36148   0.00000  Uiso   1.00
H134   H     0.42805  -0.00805   0.36889   0.00000  Uiso   1.00
H135   H     0.53628   0.00575   0.25912   0.00000  Uiso   1.00
H136   H     0.51649   0.98205   0.44746   0.00000  Uiso   1.00
H137   H     0.42361  -0.02166   0.26616   0.00000  Uiso   1.00
C138   C     0.38453   0.49821   1.05224   0.00000  Uiso   1.00
C139   C     0.37761   0.53230   1.06517   0.00000  Uiso   1.00
C140   C     0.34439   0.52889   1.04971   0.00000  Uiso   1.00
C141   C     0.31768   0.49145   1.02011   0.00000  Uiso   1.00
C142   C     0.32476   0.45761   0.00740   0.00000  Uiso   1.00
C143   C     0.35792   0.46098   0.02281   0.00000  Uiso   1.00
C144   C     0.27955   0.52150   0.99878   0.00000  Uiso   1.00
H145   H     0.11611   0.47346  -0.02500   0.00000  Uiso   1.00
H146   H     0.17873   0.48843  -0.04888   0.00000  Uiso   1.00
H147   H     0.22505   0.60347   1.05845   0.00000  Uiso   1.00
H148   H     0.16243   0.58891   1.08258   0.00000  Uiso   1.00
H149   H     0.22229   0.48490   0.01200   0.00000  Uiso   1.00
O150   O     0.24246   0.55413   0.99559   0.00000  Uiso   1.00
O151   O     0.28258   0.48435   0.00730   0.00000  Uiso   1.00
C152   C     0.13445   0.52951   0.03156   0.00000  Uiso   1.00
C153   C     0.13965   0.50193  -0.00645   0.00000  Uiso   1.00
C154   C     0.17533   0.51024  -0.01977   0.00000  Uiso   1.00
C155   C     0.20638   0.54616   1.00511   0.00000  Uiso   1.00
C156   C     0.20131   0.57512   1.04019   0.00000  Uiso   1.00
C157   C     0.16563   0.56672   1.05384   0.00000  Uiso   1.00
C158   C     0.24611   0.51713   0.00171   0.00000  Uiso   1.00
H159   H     0.33928   0.55487   1.06257   0.00000  Uiso   1.00
H160   H     0.30419   0.42822  -0.01413   0.00000  Uiso   1.00
H161   H     0.39759   0.56125   1.08813   0.00000  Uiso   1.00
H162   H     0.30375   0.55360   0.98958   0.00000  Uiso   1.00
H163   H     0.36239   0.43404   0.01264   0.00000  Uiso   1.00
C164   C     0.92023   0.40349   0.00778   0.00000  Uiso   1.00
C165   C     0.89214   0.39358   0.04904   0.00000  Uiso   1.00
C166   C     0.85543   0.36087   0.03882   0.00000  Uiso   1.00
C167   C     0.84634   0.33758  -0.01305   0.00000  Uiso   1.00
C168   C     0.87457   0.34713  -0.05350   0.00000  Uiso   1.00
C169   C     0.91116   0.37974  -0.04337   0.00000  Uiso   1.00
C170   C     0.78008   0.30315  -0.00155   0.00000  Uiso   1.00
H171   H     0.64045   0.11818   1.01555   0.00000  Uiso   1.00
H172   H     0.69577   0.18708   0.04339   0.00000  Uiso   1.00
H173   H     0.65810   0.26117  -0.04613   0.00000  Uiso   1.00
H174   H     0.60240   0.19224  -0.07440   0.00000  Uiso   1.00
H175   H     0.74437   0.23950  -0.03051   0.00000  Uiso   1.00
O176   O     0.71449   0.26852   0.00970   0.00000  Uiso   1.00
O177   O     0.81082   0.30190  -0.02422   0.00000  Uiso   1.00
C178   C     0.61763   0.14992  -0.03266   0.00000  Uiso   1.00
C179   C     0.64382   0.14914   0.00202   0.00000  Uiso   1.00
C180   C     0.67545   0.18835   0.01773   0.00000  Uiso   1.00
C181   C     0.68143   0.22900  -0.00117   0.00000  Uiso   1.00
C182   C     0.65409   0.22998  -0.03233   0.00000  Uiso   1.00
C183   C     0.62251   0.19071  -0.04847   0.00000  Uiso   1.00
C184   C     0.74645   0.26800  -0.00849   0.00000  Uiso   1.00
H185   H     0.83460   0.35294   0.07208   0.00000  Uiso   1.00
H186   H     0.86811   0.32878   0.90705   0.00000  Uiso   1.00
H187   H     0.89867   0.41082   0.08937   0.00000  Uiso   1.00
H188   H     0.78282   0.33242   0.01892   0.00000  Uiso   1.00
H189   H     0.93250   0.38607   0.92479   0.00000  Uiso   1.00
C190   C     0.87066   0.46618  -0.03087   0.00000  Uiso   1.00
C191   C     0.86602   0.49170   1.01127   0.00000  Uiso   1.00
C192   C     0.83056   0.48286   0.02733   0.00000  Uiso   1.00
C193   C     0.79917   0.44856   0.00101   0.00000  Uiso   1.00
C194   C     0.80370   0.42150  -0.03842   0.00000  Uiso   1.00
C195   C     0.83916   0.43040  -0.05472   0.00000  Uiso   1.00
C196   C     0.75996   0.47795   0.01221   0.00000  Uiso   1.00
H197   H     0.61058   0.44145  -0.07152   0.00000  Uiso   1.00
H198   H     0.66800   0.44516  -0.04693   0.00000  Uiso   1.00
H199   H     0.70243   0.56663   0.04382   0.00000  Uiso   1.00
H200   H     0.64505   0.56339   0.01833   0.00000  Uiso   1.00
H201   H     0.70235   0.44146   0.02484   0.00000  Uiso   1.00
O202   O     0.72399   0.51164   0.01441   0.00000  Uiso   1.00
O203   O     0.76329   0.44045   0.01318   0.00000  Uiso   1.00
C204   C     0.62341   0.50213  -0.02850   0.00000  Uiso   1.00
C205   C     0.63021   0.46863  -0.04569   0.00000  Uiso   1.00
C206   C     0.66290   0.47048  -0.03085   0.00000  Uiso   1.00
C207   C     0.68920   0.50572   0.00230   0.00000  Uiso   1.00
C208   C     0.68217   0.53889   0.01942   0.00000  Uiso   1.00
C209   C     0.64953   0.53705   0.00465   0.00000  Uiso   1.00
C210   C     0.72669   0.47384   0.01770   0.00000  Uiso   1.00
H211   H     0.82758   0.50306   0.05968   0.00000  Uiso   1.00
H212   H     0.77970   0.39438  -0.05796   0.00000  Uiso   1.00
H213   H     0.88981   0.51894   1.03114   0.00000  Uiso   1.00
H214   H     0.78388   0.51050   0.00377   0.00000  Uiso   1.00
H215   H     0.84193   0.40980  -0.08672   0.00000  Uiso   1.00
C216   C     0.38512   0.84981   1.03309   0.00000  Uiso   1.00
C217   C     0.35788   0.84822   0.99859   0.00000  Uiso   1.00
C218   C     0.32636   0.80798   0.98593   0.00000  Uiso   1.00
C219   C     0.32144   0.76858   1.00787   0.00000  Uiso   1.00
C220   C     0.34971   0.76987   0.03916   0.00000  Uiso   1.00
C221   C     0.38120   0.81024   0.05232   0.00000  Uiso   1.00
C222   C     0.25629   0.72905   1.01323   0.00000  Uiso   1.00
H223   H     0.06969   0.61076   0.07151   0.00000  Uiso   1.00
H224   H     0.13335   0.66996   0.08965   0.00000  Uiso   1.00
H225   H     0.17022   0.64228   0.92982   0.00000  Uiso   1.00
H226   H     0.10668   0.58299   0.91166   0.00000  Uiso   1.00
H227   H     0.22058   0.66370  -0.01145   0.00000  Uiso   1.00
O228   O     0.19174   0.69588   1.02370   0.00000  Uiso   1.00
O229   O     0.28867   0.72809  -0.00038   0.00000  Uiso   1.00
C230   C     0.08363   0.59191   0.99084   0.00000  Uiso   1.00
C231   C     0.09161   0.61679   0.04094   0.00000  Uiso   1.00
C232   C     0.12776   0.65045   0.05131   0.00000  Uiso   1.00
C233   C     0.15668   0.65948   1.01250   0.00000  Uiso   1.00
C234   C     0.14874   0.63482   0.96181   0.00000  Uiso   1.00
C235   C     0.11239   0.60131   0.95109   0.00000  Uiso   1.00
C236   C     0.22291   0.69369   0.00581   0.00000  Uiso   1.00
H237   H     0.30537   0.80756   0.96007   0.00000  Uiso   1.00
H238   H     0.34661   0.73966   0.05521   0.00000  Uiso   1.00
H239   H     0.36046   0.87817   0.98252   0.00000  Uiso   1.00
H240   H     0.25774   0.75827   1.03191   0.00000  Uiso   1.00
H241   H     0.40210   0.81052   0.07830   0.00000  Uiso   1.00
C242   C     0.48600   0.89880   0.97642   0.00000  Uiso   1.00
C243   C     0.49295   0.88255   0.02535   0.00000  Uiso   1.00
C244   C     0.47822   0.83735   0.03194   0.00000  Uiso   1.00
C245   C     0.45775   0.80768   0.98819   0.00000  Uiso   1.00
C246   C     0.44993   0.82396   0.94030   0.00000  Uiso   1.00
C247   C     0.46420   0.86911   0.93407   0.00000  Uiso   1.00
C248   C     0.46672   0.74964   1.01763   0.00000  Uiso   1.00
H249   H     0.47003   0.58797   0.92272   0.00000  Uiso   1.00
H250   H     0.45984   0.64869   0.94640   0.00000  Uiso   1.00
H251   H     0.50714   0.66157   0.11029   0.00000  Uiso   1.00
H252   H     0.51837   0.60195   0.08612   0.00000  Uiso   1.00
H253   H     0.43362   0.68278   0.99608   0.00000  Uiso   1.00
O254   O     0.48138   0.69744   1.04604   0.00000  Uiso   1.00
O255   O     0.44425   0.76214   0.99058   0.00000  Uiso   1.00
C256   C     0.49415   0.58957   1.00312   0.00000  Uiso   1.00
C257   C     0.47734   0.60313   0.96431   0.00000  Uiso   1.00
C258   C     0.47119   0.63766   0.97822   0.00000  Uiso   1.00
C259   C     0.48177   0.65898   1.03146   0.00000  Uiso   1.00
C260   C     0.49807   0.64487   0.06989   0.00000  Uiso   1.00
C261   C     0.50442   0.61084   0.05597   0.00000  Uiso   1.00
C262   C     0.45827   0.70782   1.01714   0.00000  Uiso   1.00
H263   H     0.48290   0.82588   0.07124   0.00000  Uiso   1.00
H264   H     0.43349   0.80157   0.90697   0.00000  Uiso   1.00
H265   H     0.50974   0.90487   0.05852   0.00000  Uiso   1.00
H266   H     0.49242   0.77366   0.03725   0.00000  Uiso   1.00
H267   H     0.45852   0.88090   0.89586   0.00000  Uiso   1.00
C268   C     0.52465   0.42231   0.03348   0.00000  Uiso   1.00
C269   C     0.51638   0.39577   0.98487   0.00000  Uiso   1.00
C270   C     0.53100   0.36840   0.97673   0.00000  Uiso   1.00
C271   C     0.55235   0.36488   0.01906   0.00000  Uiso   1.00
C272   C     0.56151   0.39247   0.06669   0.00000  Uiso   1.00
C273   C     0.54762   0.42074   0.07416   0.00000  Uiso   1.00
C274   C     0.54219   0.29491  -0.01236   0.00000  Uiso   1.00
H275   H     0.53017   0.12758   0.08052   0.00000  Uiso   1.00
H276   H     0.54365   0.20151   0.05701   0.00000  Uiso   1.00
H277   H     0.50019   0.15616   0.89012   0.00000  Uiso   1.00
H278   H     0.48577   0.08196   0.91408   0.00000  Uiso   1.00
H279   H     0.57434   0.26716   0.00717   0.00000  Uiso   1.00
O280   O     0.52660   0.22456   0.95581   0.00000  Uiso   1.00
O281   O     0.56507   0.33493   0.01573   0.00000  Uiso   1.00
C282   C     0.50765   0.09938  -0.00131   0.00000  Uiso   1.00
C283   C     0.52423   0.13376   0.03847   0.00000  Uiso   1.00
C284   C     0.53233   0.17622   0.02466   0.00000  Uiso   1.00
C285   C     0.52392   0.18475  -0.02941   0.00000  Uiso   1.00
C286   C     0.50759   0.15034   0.93127   0.00000  Uiso   1.00
C287   C     0.49935   0.10809   0.94507   0.00000  Uiso   1.00
C288   C     0.55001   0.26286  -0.01366   0.00000  Uiso   1.00
H289   H     0.52534   0.35009   0.93740   0.00000  Uiso   1.00
H290   H     0.57863   0.39109   0.09895   0.00000  Uiso   1.00
H291   H     0.49866   0.39631   0.95295   0.00000  Uiso   1.00
H292   H     0.51657   0.28784   0.96848   0.00000  Uiso   1.00
H293   H     0.55437   0.44090   0.11210   0.00000  Uiso   1.00
loop_
_geom_bond_atom_site_label_1
_geom_bond_atom_site_label_2
_geom_bond_distance
_geom_bond_site_symmetry_2
_ccdc_geom_bond_type
C0     O11     1.283   .     A
C0     O12     1.283   .     A
C0     C74     1.475   .     S
Sm1    O5      2.218   .     S
Sm1    O6      2.224   .     S
Sm1    O8      2.252   .     S
Sm1    O10     2.231   .     S
Sm1    O13     2.259   .     S
Sm1    O9      2.224   1_554 S
Sm2    O7      2.276   .     S
Sm2    O11     2.221   .     S
Sm2    O12     2.224   .     S
Sm2    O14     2.280   .     S
Sm2    O16     2.228   .     S
Sm2    O15     2.223   1_556 S
C3     O13     1.274   .     A
C3     C268    1.475   .     S
C3     O14     1.276   1_554 A
C4     O16     1.283   .     A
C4     O15     1.281   1_556 A
C4     C204    1.474   1_556 S
O5     C17     1.283   .     A
O6     C17     1.284   .     A
O7     C18     1.271   .     A
O8     C18     1.264   1_554 A
O9     Sm1     2.224   1_556 S
O9     C19     1.282   1_556 A
O10    C19     1.283   .     A
O14    C3      1.276   1_556 A
O15    Sm2     2.223   1_554 S
O15    C4      1.281   1_554 A
C17    C60     1.475   .     S
C18    C256    1.476   .     S
C18    O8      1.264   1_556 A
C19    O9      1.282   1_554 A
C19    C138    1.476   1_554 S
C20    O32     1.281   .     A
C20    C100    1.476   .     S
C20    O31     1.283   1_655 A
Sm21   O25     2.226   .     S
Sm21   O28     2.269   .     S
Sm21   O30     2.225   .     S
Sm21   O26     2.224   1_655 S
Sm21   O29     2.227   1_556 S
Sm21   O33     2.265   1_655 S
Sm22   O31     2.229   .     S
Sm22   O34     2.266   .     S
Sm22   O36     2.226   .     S
Sm22   O27     2.266   1_455 S
Sm22   O32     2.223   1_455 S
Sm22   O35     2.229   1_554 S
C23    O33     1.272   .     A
C23    C230    1.472   .     S
C23    O34     1.271   1_556 A
C24    O36     1.282   .     A
C24    C152    1.476   .     S
C24    O35     1.282   1_554 A
O25    C37     1.283   1_655 A
O26    C37     1.282   .     A
O26    Sm21    2.224   1_455 S
O27    C38     1.273   .     A
O27    Sm22    2.266   1_655 S
O28    C38     1.272   1_556 A
O29    Sm21    2.227   1_554 S
O29    C39     1.282   1_554 A
O30    C39     1.282   .     A
O31    C20     1.283   1_455 A
O32    Sm22    2.223   1_655 S
O33    Sm21    2.265   1_455 S
O34    C23     1.271   1_554 A
O35    Sm22    2.229   1_556 S
O35    C24     1.282   1_556 A
C37    C86     1.476   .     S
C37    O25     1.283   1_455 A
C38    C164    1.474   .     S
C38    O28     1.272   1_554 A
C39    O29     1.282   1_556 A
C39    C190    1.475   1_556 S
C40    O52     1.282   .     A
C40    C112    1.479   .     S
C40    O51     1.283   1_545 A
Sm41   O45     2.229   .     S
Sm41   O48     2.261   .     S
Sm41   O50     2.230   .     S
Sm41   O46     2.226   1_545 S
Sm41   O49     2.225   1_556 S
Sm41   O53     2.259   1_545 S
Sm42   O51     2.231   .     S
Sm42   O54     2.278   .     S
Sm42   O56     2.228   .     S
Sm42   O47     2.273   1_565 S
Sm42   O52     2.227   1_565 S
Sm42   O55     2.223   1_554 S
C43    O53     1.274   .     A
C43    C242    1.474   .     S
C43    O54     1.276   1_556 A
C44    O56     1.282   .     A
C44    O55     1.282   1_554 A
C44    C216    1.475   1_554 S
O45    C57     1.283   1_545 A
O46    C57     1.283   .     A
O46    Sm41    2.226   1_565 S
O47    C58     1.273   .     A
O47    Sm42    2.273   1_545 S
O48    C58     1.268   1_556 A
O49    Sm41    2.225   1_554 S
O49    C59     1.282   1_554 A
O50    C59     1.282   .     A
O51    C40     1.283   1_565 A
O52    Sm42    2.227   1_545 S
O53    Sm41    2.259   1_565 S
O54    C43     1.276   1_554 A
O55    Sm42    2.223   1_556 S
O55    C44     1.282   1_556 A
C57    C126    1.479   .     S
C57    O45     1.283   1_565 A
C58    C282    1.475   .     S
C58    O48     1.268   1_554 A
C59    O49     1.282   1_556 A
C59    C178    1.476   1_556 S
C60    C61     1.404   .     A
C60    C65     1.404   .     A
C61    C62     1.398   .     A
C61    H83     1.083   .     S
C62    C63     1.410   .     A
C62    H81     1.082   .     S
C63    C64     1.398   .     A
C63    O73     1.405   .     S
C64    C65     1.397   .     A
C64    H82     1.083   .     S
C65    H85     1.083   .     S
C66    O73     1.403   .     S
C66    C80     1.331   .     D
C66    H84     1.088   .     S
H67    C75     1.083   .     S
H68    C76     1.082   .     S
H69    C78     1.083   .     S
H70    C79     1.083   .     S
H71    C80     1.088   .     S
O72    C77     1.404   .     S
O72    C80     1.403   .     S
C74    C75     1.405   .     A
C74    C79     1.404   .     A
C75    C76     1.398   .     A
C76    C77     1.410   .     A
C77    C78     1.398   .     A
C78    C79     1.396   .     A
C86    C87     1.404   .     A
C86    C91     1.405   .     A
C87    C88     1.398   .     A
C87    H109    1.083   1_455 S
C88    C89     1.410   .     A
C88    H107    1.082   1_455 S
C89    C90     1.400   .     A
C89    O99     1.406   .     S
C90    C91     1.398   .     A
C90    H108    1.083   .     S
C91    H111    1.083   .     S
C92    O99     1.404   .     S
C92    C106    1.333   .     D
C92    H110    1.087   .     S
H93    C101    1.083   .     S
H94    C102    1.082   .     S
H95    C104    1.083   .     S
H96    C105    1.083   .     S
H97    C106    1.087   .     S
O98    C103    1.406   .     S
O98    C106    1.404   1_655 S
C100   C105    1.405   .     A
C100   C101    1.404   1_655 A
C101   C102    1.399   .     A
C101   C100    1.404   1_455 A
C102   C103    1.410   1_455 A
C103   C104    1.399   .     A
C103   C102    1.410   1_655 A
C104   C105    1.397   .     A
C106   O98     1.404   1_455 S
H107   C88     1.082   1_655 S
H109   C87     1.083   1_655 S
C112   C113    1.405   .     A
C112   C117    1.405   .     A
C113   C114    1.400   .     A
C113   H135    1.083   .     S
C114   C115    1.410   .     A
C114   H133    1.082   .     S
C115   C116    1.399   .     A
C115   O125    1.407   .     S
C116   C117    1.398   .     A
C116   H134    1.083   .     S
C117   H137    1.083   .     S
C118   C132    1.335   .     D
C118   H136    1.087   .     S
C118   O125    1.405   1_565 S
H119   C127    1.083   .     S
H120   C128    1.082   .     S
H121   C130    1.083   .     S
H122   C131    1.083   .     S
H123   C132    1.088   .     S
O124   C129    1.407   .     S
O124   C132    1.405   .     S
O125   C118    1.405   1_545 S
C126   C127    1.405   .     A
C126   C131    1.405   .     A
C127   C128    1.399   .     A
C128   C129    1.410   .     A
C129   C130    1.400   .     A
C130   C131    1.399   .     A
C138   C139    1.404   .     A
C138   C143    1.404   1_556 A
C138   C19     1.476   1_556 S
C139   C140    1.399   .     A
C139   H161    1.083   .     S
C140   C141    1.412   .     A
C140   H159    1.082   .     S
C141   C142    1.399   1_556 A
C141   O151    1.406   1_556 S
C142   C143    1.397   .     A
C142   H160    1.083   .     S
C142   C141    1.399   1_554 A
C143   H163    1.083   .     S
C143   C138    1.404   1_554 A
C144   H162    1.087   .     S
C144   O151    1.403   1_556 S
C144   C158    1.332   1_556 D
H145   C153    1.084   .     S
H146   C154    1.083   .     S
H147   C156    1.083   .     S
H148   C157    1.084   .     S
H149   C158    1.089   .     S
O150   C155    1.404   .     S
O150   C158    1.405   1_556 S
O151   C141    1.406   1_554 S
O151   C144    1.403   1_554 S
C152   C153    1.405   .     A
C152   C157    1.406   1_554 A
C153   C154    1.398   .     A
C154   C155    1.408   1_554 A
C155   C156    1.399   .     A
C155   C154    1.408   1_556 A
C156   C157    1.398   .     A
C157   C152    1.406   1_556 A
C158   C144    1.332   1_554 D
C158   O150    1.405   1_554 S
C164   C165    1.405   .     A
C164   C169    1.402   .     A
C165   C166    1.400   .     A
C165   H187    1.083   .     S
C166   C167    1.410   .     A
C166   H185    1.082   .     S
C167   C168    1.399   .     A
C167   O177    1.404   .     S
C168   C169    1.396   .     A
C168   H186    1.082   1_554 S
C169   H189    1.083   1_554 S
C170   O177    1.403   .     S
C170   C184    1.333   .     D
C170   H188    1.086   .     S
H171   C179    1.083   1_556 S
H172   C180    1.083   .     S
H173   C182    1.083   .     S
H174   C183    1.083   .     S
H175   C184    1.089   .     S
O176   C181    1.403   .     S
O176   C184    1.405   .     S
C178   C179    1.405   .     A
C178   C183    1.406   .     A
C178   C59     1.476   1_554 S
C179   C180    1.397   .     A
C179   H171    1.083   1_554 S
C180   C181    1.406   .     A
C181   C182    1.400   .     A
C182   C183    1.400   .     A
H186   C168    1.082   1_556 S
H189   C169    1.083   1_556 S
C190   C195    1.405   .     A
C190   C191    1.404   1_554 A
C190   C39     1.475   1_554 S
C191   H213    1.083   .     S
C191   C190    1.404   1_556 A
C191   C192    1.397   1_556 A
C192   C193    1.408   .     A
C192   H211    1.082   .     S
C192   C191    1.397   1_554 A
C193   C194    1.399   .     A
C193   O203    1.403   .     S
C194   C195    1.398   .     A
C194   H212    1.082   .     S
C195   H215    1.083   .     S
C196   O203    1.404   .     S
C196   C210    1.332   .     D
C196   H214    1.089   .     S
H197   C205    1.083   .     S
H198   C206    1.082   .     S
H199   C208    1.083   .     S
H200   C209    1.083   .     S
H201   C210    1.087   .     S
O202   C207    1.406   .     S
O202   C210    1.403   .     S
C204   C205    1.404   .     A
C204   C209    1.404   .     A
C204   C4      1.474   1_554 S
C205   C206    1.398   .     A
C206   C207    1.412   .     A
C207   C208    1.399   .     A
C208   C209    1.396   .     A
C216   C217    1.404   .     A
C216   C221    1.406   1_556 A
C216   C44     1.475   1_556 S
C217   C218    1.395   .     A
C217   H239    1.083   .     S
C218   C219    1.407   .     A
C218   H237    1.083   .     S
C219   C220    1.400   1_556 A
C219   O229    1.404   1_556 S
C220   C221    1.400   .     A
C220   H238    1.083   .     S
C220   C219    1.400   1_554 A
C221   H241    1.083   .     S
C221   C216    1.406   1_554 A
C222   H240    1.089   .     S
C222   O229    1.405   1_556 S
C222   C236    1.331   1_556 D
H223   C231    1.083   .     S
H224   C232    1.082   .     S
H225   C234    1.082   .     S
H226   C235    1.083   .     S
H227   C236    1.086   .     S
O228   C233    1.402   .     S
O228   C236    1.402   1_556 S
O229   C219    1.404   1_554 S
O229   C222    1.405   1_554 S
C230   C235    1.405   .     A
C230   C231    1.401   1_556 A
C231   C232    1.395   .     A
C231   C230    1.401   1_554 A
C232   C233    1.398   1_554 A
C233   C234    1.409   .     A
C233   C232    1.398   1_556 A
C234   C235    1.400   .     A
C236   C222    1.331   1_554 D
C236   O228    1.402   1_554 S
C242   C247    1.404   .     A
C242   C243    1.402   1_556 A
C243   C244    1.398   .     A
C243   H265    1.083   .     S
C243   C242    1.402   1_554 A
C244   H263    1.082   .     S
C244   C245    1.413   1_554 A
C245   C246    1.399   .     A
C245   O255    1.409   .     S
C245   C244    1.413   1_556 A
C246   C247    1.398   .     A
C246   H264    1.083   .     S
C247   H267    1.083   .     S
C248   O255    1.405   .     S
C248   C262    1.333   .     D
C248   H266    1.086   1_556 S
H249   C257    1.083   .     S
H250   C258    1.081   .     S
H251   C260    1.083   .     S
H252   C261    1.083   .     S
H253   C262    1.087   .     S
O254   C259    1.405   .     S
O254   C262    1.401   .     S
C256   C257    1.405   .     A
C256   C261    1.403   1_556 A
C257   C258    1.403   .     A
C258   C259    1.413   .     A
C259   C260    1.396   1_556 A
C260   C261    1.392   .     A
C260   C259    1.396   1_554 A
C261   C256    1.403   1_554 A
H266   C248    1.086   1_554 S
C268   C273    1.405   .     A
C268   C269    1.401   1_554 A
C269   C270    1.395   .     A
C269   H291    1.084   .     S
C269   C268    1.401   1_556 A
C270   H289    1.081   .     S
C270   C271    1.413   1_556 A
C271   C272    1.400   .     A
C271   O281    1.410   .     S
C271   C270    1.413   1_554 A
C272   C273    1.399   .     A
C272   H290    1.083   .     S
C273   H293    1.083   .     S
C274   O281    1.406   .     S
C274   C288    1.332   .     D
C274   H292    1.085   1_554 S
H275   C283    1.083   .     S
H276   C284    1.081   .     S
H277   C286    1.083   .     S
H278   C287    1.084   .     S
H279   C288    1.087   .     S
O280   C285    1.404   1_556 S
O280   C288    1.401   1_556 S
C282   C283    1.405   .     A
C282   C287    1.403   1_554 A
C283   C284    1.402   .     A
C284   C285    1.412   .     A
C285   O280    1.404   1_554 S
C285   C286    1.397   1_554 A
C286   C287    1.393   .     A
C286   C285    1.397   1_556 A
C287   C282    1.403   1_556 A
C288   O280    1.401   1_554 S
H292   C274    1.085   1_556 S
