data_kag+N144+E70
_audit_creation_date              2025-01-21
_audit_creation_method            'Materials Studio'
_symmetry_space_group_name_H-M    'P1'
_symmetry_Int_Tables_number       1
_symmetry_cell_setting            triclinic
loop_
_symmetry_equiv_pos_as_xyz
  x,y,z
_cell_length_a                    22.7751
_cell_length_b                    22.2785
_cell_length_c                    10.5320
_cell_angle_alpha                 83.6899
_cell_angle_beta                  89.2394
_cell_angle_gamma                 123.7070
loop_
_atom_site_label
_atom_site_type_symbol
_atom_site_fract_x
_atom_site_fract_y
_atom_site_fract_z
_atom_site_U_iso_or_equiv
_atom_site_adp_type
_atom_site_occupancy
C0     C     0.67162   0.52594   0.91914   0.00000  Uiso   1.00
Er1    Er    0.44726   0.52561  -0.00240   0.00000  Uiso   1.00
Er2    Er    0.56128   0.55477  -0.01391   0.00000  Uiso   1.00
C3     C     0.56562   0.69224  -0.03630   0.00000  Uiso   1.00
O4     O     0.56154   0.56002   0.78050   0.00000  Uiso   1.00
C5     C     0.50623   0.54564   0.25578   0.00000  Uiso   1.00
C6     C     0.44895   0.39049   0.01829   0.00000  Uiso   1.00
C7     C     0.36425   0.57283   0.98188   0.00000  Uiso   1.00
O8     O     0.63426   0.50077   0.83227   0.00000  Uiso   1.00
O9     O     0.66931   0.57616   0.98267   0.00000  Uiso   1.00
O10    O     0.51556   0.43723   0.00990   0.00000  Uiso   1.00
O11    O     0.40754   0.41160   0.01837   0.00000  Uiso   1.00
O12    O     0.55872   0.55451   0.19114   0.00000  Uiso   1.00
O13    O     0.44868   0.52560   0.20488   0.00000  Uiso   1.00
C14    C     0.50895   0.55116   0.72403   0.00000  Uiso   1.00
O15    O     0.45178   0.53124   0.78851   0.00000  Uiso   1.00
O16    O     0.60792   0.67213  -0.03936   0.00000  Uiso   1.00
O17    O     0.49885   0.64440  -0.02189   0.00000  Uiso   1.00
O18    O     0.34070   0.50576   0.99909   0.00000  Uiso   1.00
O19    O     0.43123   0.61325   0.97858   0.00000  Uiso   1.00
C20    C     0.88927   0.33502   0.96112   0.00000  Uiso   1.00
Er21   Er    0.03894   0.61233  -0.04389   0.00000  Uiso   1.00
Er22   Er    1.00031   0.49302  -0.01679   0.00000  Uiso   1.00
C23    C     0.15697   0.58599  -0.05120   0.00000  Uiso   1.00
O24    O     1.00083   0.49396   0.77850   0.00000  Uiso   1.00
C25    C     1.01172   0.54343   0.23839   0.00000  Uiso   1.00
C26    C     0.88164   0.52017  -0.00756   0.00000  Uiso   1.00
C27    C     0.10994   0.73804   1.04161   0.00000  Uiso   1.00
O28    O     0.87480   0.36399   0.87394   0.00000  Uiso   1.00
O29    O     0.95508   0.37426   1.00962   0.00000  Uiso   1.00
O30    O     0.89510   0.47181  -0.00733   0.00000  Uiso   1.00
O31    O     0.93222   0.58741  -0.01699   0.00000  Uiso   1.00
O32    O     0.99475   0.48765   0.18784   0.00000  Uiso   1.00
O33    O     0.04073   0.60553   0.16821   0.00000  Uiso   1.00
C34    C     0.00814   0.54736   0.70644   0.00000  Uiso   1.00
O35    O     0.02606   0.60520   0.75172   0.00000  Uiso   1.00
O36    O     0.10712   0.51920  -0.02324   0.00000  Uiso   1.00
O37    O     0.14329   0.63391  -0.07159   0.00000  Uiso   1.00
O38    O     0.09292   0.73077   0.92783   0.00000  Uiso   1.00
O39    O     0.08054   0.67725   1.11438   0.00000  Uiso   1.00
C40    C     0.43966   0.16451   0.99976   0.00000  Uiso   1.00
Er41   Er    0.50369   0.97556   0.09378   0.00000  Uiso   1.00
Er42   Er    0.50315   0.07774   0.07589   0.00000  Uiso   1.00
C43    C     0.35453   0.93758   0.09714   0.00000  Uiso   1.00
O44    O     0.49580   0.07524   0.87005   0.00000  Uiso   1.00
C45    C     0.49002   0.01898   0.35126   0.00000  Uiso   1.00
C46    C     0.65118   0.11564   0.07438   0.00000  Uiso   1.00
C47    C     0.53551   0.89110   0.99945   0.00000  Uiso   1.00
O48    O     0.40694   0.11297   0.94076   0.00000  Uiso   1.00
O49    O     0.49877   0.17618   1.05922   0.00000  Uiso   1.00
O50    O     0.61765   0.14513   0.04771   0.00000  Uiso   1.00
O51    O     0.61744   0.04704   0.10628   0.00000  Uiso   1.00
O52    O     0.50669   0.07771   0.28273   0.00000  Uiso   1.00
O53    O     0.48438  -0.03229   0.29859   0.00000  Uiso   1.00
C54    C     0.50048   0.02921   0.81800   0.00000  Uiso   1.00
O55    O     0.51575   0.98874   0.88384   0.00000  Uiso   1.00
O56    O     0.38847   1.00516   0.10705   0.00000  Uiso   1.00
O57    O     0.38859   0.90822   0.08135   0.00000  Uiso   1.00
O58    O     0.53250   0.93991   0.93084   0.00000  Uiso   1.00
O59    O     0.51372   0.88244   1.11520   0.00000  Uiso   1.00
N60    N     0.48993   0.53302   0.49491   0.00000  Uiso   1.00
H61    H     0.60082   0.68520   0.29984   0.00000  Uiso   1.00
C62    C     0.51920   0.57339   0.37919   0.00000  Uiso   1.00
C63    C     0.57092   0.64553   0.38389   0.00000  Uiso   1.00
C64    C     0.52054   0.57658   0.58652   0.00000  Uiso   1.00
S65    S     0.58530   0.66621   0.53478   0.00000  Uiso   1.00
N66    N     0.02561   0.56217   0.46820   0.00000  Uiso   1.00
H67    H     0.87216   0.45907   0.64496   0.00000  Uiso   1.00
C68    C     0.98349   0.53583   0.57857   0.00000  Uiso   1.00
C69    C     0.91287   0.48675   0.56546   0.00000  Uiso   1.00
C70    C    -0.01499   0.53201   0.37167   0.00000  Uiso   1.00
S71    S     0.89588   0.47132   0.41254   0.00000  Uiso   1.00
N72    N     0.50819   0.04201   0.57880   0.00000  Uiso   1.00
H73    H     0.36296   0.90664   0.47653   0.00000  Uiso   1.00
C74    C     0.46735   0.00422   0.48827   0.00000  Uiso   1.00
C75    C     0.40188   0.94371   0.53576   0.00000  Uiso   1.00
C76    C     0.47173   0.00898   0.69506   0.00000  Uiso   1.00
S77    S     0.38826   0.93184   0.69726   0.00000  Uiso   1.00
N78    N     0.25207   0.56514   0.96927   0.00000  Uiso   1.00
H79    H     0.41184   0.71771   0.91711   0.00000  Uiso   1.00
C80    C     0.32295   0.60421   0.96155   0.00000  Uiso   1.00
C81    C     0.35512   0.67814   0.92879   0.00000  Uiso   1.00
C82    C     0.23108   0.61058  -0.05789   0.00000  Uiso   1.00
S83    S     0.29679   0.70171   0.90632   0.00000  Uiso   1.00
N84    N     0.76677   0.22926   1.00746   0.00000  Uiso   1.00
H85    H     0.90394   0.22979   1.10480   0.00000  Uiso   1.00
C86    C     0.83607   0.25967   1.01711   0.00000  Uiso   1.00
C87    C     0.85097   0.21438   1.08670   0.00000  Uiso   1.00
C88    C     0.72868   0.16056   0.06855   0.00000  Uiso   1.00
S89    S     0.77664   0.13021   0.13977   0.00000  Uiso   1.00
N90    N     0.78379   0.53811   0.96391   0.00000  Uiso   1.00
H91    H     0.76087   0.37935   0.05540   0.00000  Uiso   1.00
C92    C     0.80658   0.49512  -0.00064   0.00000  Uiso   1.00
C93    C     0.75263   0.42219   0.02720   0.00000  Uiso   1.00
C94    C     0.71254   0.49678   0.96385   0.00000  Uiso   1.00
S95    S     0.67112   0.40494   0.00761   0.00000  Uiso   1.00
N96    N     0.23446   0.82960   0.06862   0.00000  Uiso   1.00
H97    H     0.26279   0.97706   1.17188   0.00000  Uiso   1.00
C98    C     0.27609   0.89591   1.10431   0.00000  Uiso   1.00
C99    C     0.23851   0.92390   1.14149   0.00000  Uiso   1.00
C100   C     0.16577   0.80737   1.08018   0.00000  Uiso   1.00
S101   S     0.14933   0.86675   1.13369   0.00000  Uiso   1.00
N102   N     0.54634   0.78670   0.99901   0.00000  Uiso   1.00
H103   H     0.65305   0.94523   0.82057   0.00000  Uiso   1.00
C104   C     0.56798   0.85492   0.95287   0.00000  Uiso   1.00
C105   C     0.62718   0.88947   0.86642   0.00000  Uiso   1.00
C106   C     0.58833   0.76868  -0.05207   0.00000  Uiso   1.00
S107   S     0.65708   0.83572   0.84147   0.00000  Uiso   1.00
N108   N     0.45681   0.28328   1.01854   0.00000  Uiso   1.00
H109   H     0.30734   0.27470   0.02050   0.00000  Uiso   1.00
C110   C     0.41824   0.31196   0.02282   0.00000  Uiso   1.00
C111   C     0.34651   0.26159   0.02001   0.00000  Uiso   1.00
C112   C     0.41376   0.21123   1.01127   0.00000  Uiso   1.00
S113   S     0.32518   0.17635   1.00944   0.00000  Uiso   1.00
loop_
_geom_bond_atom_site_label_1
_geom_bond_atom_site_label_2
_geom_bond_distance
_geom_bond_site_symmetry_2
_ccdc_geom_bond_type
C0     O8      1.216   .     D
C0     O9      1.390   .     S
C0     C94     1.459   .     S
Er1    O11     2.154   .     S
Er1    O13     2.184   .     S
Er1    O17     2.202   .     S
Er1    O15     2.190   1_554 S
Er1    O18     2.212   1_554 S
Er1    O19     2.166   1_554 S
Er2    O10     2.197   .     S
Er2    O12     2.159   .     S
Er2    O16     2.189   .     S
Er2    O4      2.155   1_554 S
Er2    O9      2.230   1_554 S
C3     O16     1.270   .     A
C3     O17     1.277   .     A
C3     C106    1.467   .     S
O4     C14     1.269   .     A
O4     Er2     2.155   1_556 S
C5     O12     1.272   .     A
C5     O13     1.275   .     A
C5     C62     1.464   .     S
C6     O10     1.271   .     A
C6     O11     1.266   .     A
C6     C110    1.475   .     S
C7     O18     1.266   .     A
C7     O19     1.267   .     A
C7     C80     1.457   .     S
O9     Er2     2.230   1_556 S
C14    O15     1.274   .     A
C14    C64     1.460   .     S
O15    Er1     2.190   1_556 S
O18    Er1     2.212   1_556 S
O19    Er1     2.166   1_556 S
C20    O28     1.217   .     D
C20    O29     1.391   .     S
C20    C86     1.463   .     S
Er21   O33     2.225   .     S
Er21   O37     2.156   .     S
Er21   O31     2.178   1_455 S
Er21   O35     2.187   1_554 S
Er21   O38     2.186   1_554 S
Er21   O39     2.195   1_554 S
Er22   O30     2.168   .     S
Er22   O32     2.143   .     S
Er22   O24     2.154   1_554 S
Er22   O29     2.224   1_554 S
Er22   O36     2.162   1_655 S
C23    O36     1.269   .     A
C23    O37     1.266   .     A
C23    C82     1.455   .     S
O24    Er22    2.154   1_556 S
O24    C34     1.264   1_655 A
C25    O32     1.263   .     A
C25    O33     1.282   1_655 A
C25    C70     1.460   1_655 S
C26    O30     1.273   .     A
C26    O31     1.277   .     A
C26    C92     1.472   .     S
C27    O38     1.264   .     A
C27    O39     1.274   .     A
C27    C100    1.463   .     S
O29    Er22    2.224   1_556 S
O31    Er21    2.178   1_655 S
O33    C25     1.282   1_455 A
C34    O35     1.269   .     A
C34    O24     1.264   1_455 A
C34    C68     1.460   1_455 S
O35    Er21    2.187   1_556 S
O36    Er22    2.162   1_455 S
O38    Er21    2.186   1_556 S
O39    Er21    2.195   1_556 S
C40    O48     1.216   .     D
C40    O49     1.393   .     S
C40    C112    1.467   .     S
Er41   O57     2.197   .     S
Er41   O51     2.177   1_565 S
Er41   O53     2.164   1_565 S
Er41   O55     2.191   1_554 S
Er41   O58     2.203   1_554 S
Er41   O59     2.198   1_554 S
Er42   O50     2.163   .     S
Er42   O52     2.181   .     S
Er42   O44     2.181   1_554 S
Er42   O49     2.238   1_554 S
Er42   O56     2.172   1_545 S
C43    O56     1.273   .     A
C43    O57     1.281   .     A
C43    C98     1.483   1_554 S
O44    C54     1.268   .     A
O44    Er42    2.181   1_556 S
C45    O52     1.269   .     A
C45    O53     1.268   .     A
C45    C74     1.464   .     S
C46    O50     1.271   .     A
C46    O51     1.271   .     A
C46    C88     1.464   .     S
C47    O58     1.273   .     A
C47    O59     1.263   .     A
C47    C104    1.475   .     S
O49    Er42    2.238   1_556 S
O51    Er41    2.177   1_545 S
O53    Er41    2.164   1_545 S
C54    C76     1.460   .     S
C54    O55     1.277   1_545 A
O55    Er41    2.191   1_556 S
O55    C54     1.277   1_565 A
O56    Er42    2.172   1_565 S
O58    Er41    2.203   1_556 S
O59    Er41    2.198   1_556 S
N60    C62     1.346   .     A
N60    C64     1.353   .     A
H61    C63     1.083   .     S
C62    C63     1.375   .     A
C63    S65     1.689   .     A
C64    S65     1.712   .     A
N66    C70     1.351   .     A
N66    C68     1.346   1_455 A
H67    C69     1.083   .     S
C68    C69     1.374   .     A
C68    N66     1.346   1_655 A
C68    C34     1.460   1_655 S
C69    S71     1.689   .     A
C70    S71     1.714   1_455 A
C70    C25     1.460   1_455 S
S71    C70     1.714   1_655 A
N72    C74     1.347   .     A
N72    C76     1.352   .     A
H73    C75     1.083   .     S
C74    C75     1.375   1_545 A
C75    S77     1.690   .     A
C75    C74     1.375   1_565 A
C76    S77     1.712   1_545 A
S77    C76     1.712   1_565 A
N78    C80     1.339   .     A
N78    C82     1.346   1_556 A
H79    C81     1.081   .     S
C80    C81     1.378   .     A
C81    S83     1.689   .     A
C82    N78     1.346   1_554 A
C82    S83     1.717   1_554 A
S83    C82     1.717   1_556 A
N84    C86     1.339   .     A
N84    C88     1.343   1_556 A
H85    C87     1.082   .     S
C86    C87     1.376   .     A
C87    S89     1.707   1_556 A
C88    S89     1.716   .     A
C88    N84     1.343   1_554 A
S89    C87     1.707   1_554 A
N90    C94     1.350   .     A
N90    C92     1.343   1_556 A
H91    C93     1.083   .     S
C92    C93     1.381   .     A
C92    N90     1.343   1_554 A
C93    S95     1.695   .     A
C94    S95     1.711   1_556 A
S95    C94     1.711   1_554 A
N96    C98     1.341   1_554 A
N96    C100    1.353   1_554 A
H97    C99     1.083   .     S
C98    C99     1.383   .     A
C98    N96     1.341   1_556 A
C98    C43     1.483   1_556 S
C99    S101    1.706   .     A
C100   S101    1.708   .     A
C100   N96     1.353   1_556 A
N102   C104    1.338   .     A
N102   C106    1.351   1_556 A
H103   C105    1.083   .     S
C104   C105    1.379   .     A
C105   S107    1.714   .     A
C106   N102    1.351   1_554 A
C106   S107    1.712   1_554 A
S107   C106    1.712   1_556 A
N108   C112    1.351   .     A
N108   C110    1.345   1_556 A
H109   C111    1.082   .     S
C110   C111    1.379   .     A
C110   N108    1.345   1_554 A
C111   S113    1.697   1_554 A
C112   S113    1.714   .     A
S113   C111    1.697   1_556 A
