data_kag+N155+E220
_audit_creation_date              2025-01-21
_audit_creation_method            'Materials Studio'
_symmetry_space_group_name_H-M    'P1'
_symmetry_Int_Tables_number       1
_symmetry_cell_setting            triclinic
loop_
_symmetry_equiv_pos_as_xyz
  x,y,z
_cell_length_a                    24.7039
_cell_length_b                    26.4726
_cell_length_c                    10.8578
_cell_angle_alpha                 90.5247
_cell_angle_beta                  87.4398
_cell_angle_gamma                 128.0533
loop_
_atom_site_label
_atom_site_type_symbol
_atom_site_fract_x
_atom_site_fract_y
_atom_site_fract_z
_atom_site_U_iso_or_equiv
_atom_site_adp_type
_atom_site_occupancy
C0     C     0.43205   0.32268   0.04178   0.00000  Uiso   1.00
Ho1    Ho    0.47189   0.43797   0.01920   0.00000  Uiso   1.00
C2     C     0.57829   0.68807   0.96591   0.00000  Uiso   1.00
Ho3    Ho    0.53213   0.57047   0.99156   0.00000  Uiso   1.00
O4     O     0.44096   0.35642   0.13616   0.00000  Uiso   1.00
O5     O     0.43539   0.34743   0.93844   0.00000  Uiso   1.00
O6     O     0.46163   0.41322   0.21502   0.00000  Uiso   1.00
O7     O     0.50560   0.51077   0.15328   0.00000  Uiso   1.00
C8     C     0.48628   0.46743   0.25051   0.00000  Uiso   1.00
C9     C     0.51813   0.54069   0.76052   0.00000  Uiso   1.00
O10    O     0.58001   0.47725   0.00799   0.00000  Uiso   1.00
O11    O     0.63030   0.58409   0.97970   0.00000  Uiso   1.00
O12    O     0.56506   0.65207   0.87339   0.00000  Uiso   1.00
O13    O     0.57104   0.66209   0.07016   0.00000  Uiso   1.00
O14    O     0.54161   0.59469   0.79525   0.00000  Uiso   1.00
O15    O     0.49879   0.49740   0.85751   0.00000  Uiso   1.00
O16    O     0.42335   0.53111   1.00498   0.00000  Uiso   1.00
O17    O     0.37404   0.42399   0.02799   0.00000  Uiso   1.00
C18    C     0.37044   0.47081   1.01828   0.00000  Uiso   1.00
C19    C     0.63334   0.53700  -0.00760   0.00000  Uiso   1.00
C20    C     0.13346   0.46209   0.01152   0.00000  Uiso   1.00
Ho21   Ho    0.04838   0.48809  -0.00275   0.00000  Uiso   1.00
C22    C     0.87205   0.54662   0.98107   0.00000  Uiso   1.00
Ho23   Ho    0.95766   0.52095   0.98527   0.00000  Uiso   1.00
O24    O     0.10654   0.46928   0.10735   0.00000  Uiso   1.00
O25    O     0.11308   0.46711   0.90931   0.00000  Uiso   1.00
O26    O     0.06473   0.48152   0.19248   0.00000  Uiso   1.00
O27    O     0.99840   0.50544   0.13855   0.00000  Uiso   1.00
C28    C     0.02742   0.49472   0.23215   0.00000  Uiso   1.00
C29    C    -0.02345   0.51341   0.75039   0.00000  Uiso   1.00
O30    O     0.12697   0.59320  -0.00553   0.00000  Uiso   1.00
O31    O     0.05474   0.62002   0.98008   0.00000  Uiso   1.00
O32    O     0.89818   0.54098   0.88151   0.00000  Uiso   1.00
O33    O     0.89377   0.54063   0.08023   0.00000  Uiso   1.00
O34    O     0.94037   0.52754   0.79209   0.00000  Uiso   1.00
O35    O     0.00663   0.50313   0.84309   0.00000  Uiso   1.00
O36    O     0.87875   0.41583   0.99213   0.00000  Uiso   1.00
O37    O     0.95116   0.38908   0.00217   0.00000  Uiso   1.00
C38    C     0.89025   0.37418   0.99896   0.00000  Uiso   1.00
C39    C     0.11533   0.63476  -0.01175   0.00000  Uiso   1.00
C40    C     0.56912   0.89877   0.96959   0.00000  Uiso   1.00
Ho41   Ho    0.52836   0.96810   0.99970   0.00000  Uiso   1.00
C42    C     0.43826   0.10989   0.05564   0.00000  Uiso   1.00
Ho43   Ho    0.47599   0.03851   0.03232   0.00000  Uiso   1.00
O44    O     0.55978   0.92297   0.87866   0.00000  Uiso   1.00
O45    O     0.56062   0.91528   0.07523   0.00000  Uiso   1.00
O46    O     0.54035   0.95710   0.80291   0.00000  Uiso   1.00
O47    O     0.50150   0.00870   0.86871   0.00000  Uiso   1.00
C48    C     0.51970  -0.01331   0.76999   0.00000  Uiso   1.00
C49    C     0.48461   1.01885   0.26216   0.00000  Uiso   1.00
O50    O     0.41745   0.88634   1.00433   0.00000  Uiso   1.00
O51    O     0.37502   0.94260   0.03197   0.00000  Uiso   1.00
O52    O     0.44455   0.08508   0.15002   0.00000  Uiso   1.00
O53    O     0.44649   0.09203   0.95171   0.00000  Uiso   1.00
O54    O     0.46370   0.04844   0.23064   0.00000  Uiso   1.00
O55    O     0.50277   0.99780   0.16222   0.00000  Uiso   1.00
O56    O     0.58610   0.11999   0.03053   0.00000  Uiso   1.00
O57    O     0.62940   0.06485   0.99805   0.00000  Uiso   1.00
C58    C     0.63688   0.11755   0.01484   0.00000  Uiso   1.00
C59    C     0.36700   0.88952   1.01849   0.00000  Uiso   1.00
C60    C     0.49417   0.48459   0.38191   0.00000  Uiso   1.00
C61    C     0.50206   0.45171   0.47315   0.00000  Uiso   1.00
C62    C     0.50988   0.47082   0.59606   0.00000  Uiso   1.00
C63    C     0.51085   0.52260   0.63050   0.00000  Uiso   1.00
C64    C     0.50473   0.55602   0.54000   0.00000  Uiso   1.00
C65    C     0.49620   0.53703   0.41713   0.00000  Uiso   1.00
O66    O     0.56452   0.41111   0.47038   0.00000  Uiso   1.00
O67    O     0.45625   0.34692   0.40547   0.00000  Uiso   1.00
N68    N     0.50900   0.40316   0.44158   0.00000  Uiso   1.00
H69    H     0.50550   0.59624   0.56486   0.00000  Uiso   1.00
H70    H     0.49086   0.56335   0.34955   0.00000  Uiso   1.00
H71    H     0.51604   0.44571   0.66500   0.00000  Uiso   1.00
C72    C     0.98683   0.50718   0.61721   0.00000  Uiso   1.00
C73    C     0.95048   0.51109   0.52518   0.00000  Uiso   1.00
C74    C     0.96539   0.50797   0.40032   0.00000  Uiso   1.00
C75    C     0.01421   0.49899   0.36455   0.00000  Uiso   1.00
C76    C     0.04889   0.49373   0.45579   0.00000  Uiso   1.00
C77    C     0.03549   0.49801   0.58037   0.00000  Uiso   1.00
O78    O     0.89298   0.55552   0.49446   0.00000  Uiso   1.00
O79    O     0.84343   0.47119   0.62500   0.00000  Uiso   1.00
N80    N     0.89657   0.51571   0.55583   0.00000  Uiso   1.00
H81    H     0.08682   0.48683   0.43063   0.00000  Uiso   1.00
H82    H     0.06397   0.49467   0.64837   0.00000  Uiso   1.00
H83    H     0.93715   0.51093   0.33083   0.00000  Uiso   1.00
C84    C     0.49113   0.00758   0.39204   0.00000  Uiso   1.00
C85    C     0.49657   0.95914   0.42785   0.00000  Uiso   1.00
C86    C     0.50849   0.95492   0.55126   0.00000  Uiso   1.00
C87    C     0.51198  -0.00471   0.64035   0.00000  Uiso   1.00
C88    C     0.50487   0.04170   0.60540   0.00000  Uiso   1.00
C89    C     0.49495   0.04796   0.48276   0.00000  Uiso   1.00
O90    O     0.51119   0.88123   0.36600   0.00000  Uiso   1.00
O91    O     0.43824   0.88742   0.26460   0.00000  Uiso   1.00
N92    N     0.48619   0.91164   0.34400   0.00000  Uiso   1.00
H93    H     0.50726   0.07332   0.67304   0.00000  Uiso   1.00
H94    H     0.49007   0.08442   0.45786   0.00000  Uiso   1.00
H95    H     0.51255   0.91819   0.57936   0.00000  Uiso   1.00
C96    C     0.30257   0.45590   0.01890   0.00000  Uiso   1.00
C97    C     0.26602   0.43957   0.90954   0.00000  Uiso   1.00
C98    C     0.20802   0.43818   0.91087   0.00000  Uiso   1.00
C99    C     0.18641   0.45285   0.01772   0.00000  Uiso   1.00
C100   C     0.22049   0.46494   0.12682   0.00000  Uiso   1.00
C101   C     0.27834   0.46699   0.12711   0.00000  Uiso   1.00
O102   O     0.24343   0.39137   0.71357   0.00000  Uiso   1.00
O103   O     0.35280   0.45590   0.76808   0.00000  Uiso   1.00
N104   N     0.28785   0.42681   0.79600   0.00000  Uiso   1.00
H105   H     0.20463   0.47603   0.21081   0.00000  Uiso   1.00
H106   H     0.30609   0.48001   0.21102   0.00000  Uiso   1.00
H107   H     0.18179   0.42884   0.82633   0.00000  Uiso   1.00
C108   C     0.82965   0.30603   1.00473   0.00000  Uiso   1.00
C109   C     0.81748   0.26212   0.91257   0.00000  Uiso   1.00
C110   C     0.75582   0.19850   0.92101   0.00000  Uiso   1.00
C111   C     0.70635   0.17925   0.01742   0.00000  Uiso   1.00
C112   C     0.71997   0.22302   0.10896   0.00000  Uiso   1.00
C113   C     0.78110   0.28536   0.10345   0.00000  Uiso   1.00
O114   O     0.86567   0.24051   0.74484   0.00000  Uiso   1.00
O115   O     0.89695   0.33969   0.75809   0.00000  Uiso   1.00
N116   N     0.86398   0.28220   0.80590   0.00000  Uiso   1.00
H117   H     0.68226   0.20899   0.18358   0.00000  Uiso   1.00
H118   H     0.79009   0.31848   0.17476   0.00000  Uiso   1.00
H119   H     0.74423   0.16520   0.84821   0.00000  Uiso   1.00
C120   C     0.81683   0.55323   0.98450   0.00000  Uiso   1.00
C121   C     0.81128   0.58890   0.89562   0.00000  Uiso   1.00
C122   C     0.75229   0.58639   0.90140   0.00000  Uiso   1.00
C123   C     0.70020   0.54966   0.99395   0.00000  Uiso   1.00
C124   C     0.70806   0.51719   0.08347   0.00000  Uiso   1.00
C125   C     0.76537   0.51882   0.07869   0.00000  Uiso   1.00
O126   O     0.85062   0.64075   0.69791   0.00000  Uiso   1.00
O127   O     0.92926   0.65908  -0.17321   0.00000  Uiso   1.00
N128   N     0.86485   0.62815   0.80202   0.00000  Uiso   1.00
H129   H     0.66834   0.48834   0.15539   0.00000  Uiso   1.00
H130   H     0.76821   0.49107   0.14704   0.00000  Uiso   1.00
H131   H     0.74623   0.61182   0.83245   0.00000  Uiso   1.00
C132   C     0.29664   0.82869   0.01677   0.00000  Uiso   1.00
C133   C     0.26562   0.78759   0.12227   0.00000  Uiso   1.00
C134   C     0.20558   0.72456   0.11113   0.00000  Uiso   1.00
C135   C     0.17477   0.70249   0.99760   0.00000  Uiso   1.00
C136   C     0.20364   0.74421   0.89436   0.00000  Uiso   1.00
C137   C     0.26465   0.80679   0.90367   0.00000  Uiso   1.00
O138   O     0.29600   0.85480   0.29258   0.00000  Uiso   1.00
O139   O     0.30100   0.77320   0.30863   0.00000  Uiso   1.00
N140   N     0.29422   0.80917   0.24039   0.00000  Uiso   1.00
H141   H     0.18041   0.72763   0.80597   0.00000  Uiso   1.00
H142   H     0.28830   0.83756   0.82172   0.00000  Uiso   1.00
H143   H     0.18271   0.69233   0.19143   0.00000  Uiso   1.00
C144   C     0.58390   0.85249  -0.04391   0.00000  Uiso   1.00
C145   C     0.56883   0.81580   0.84840   0.00000  Uiso   1.00
C146   C     0.57506   0.76642   0.84819   0.00000  Uiso   1.00
C147   C     0.59217   0.75067  -0.04487   0.00000  Uiso   1.00
C148   C     0.61043   0.78920   0.05872   0.00000  Uiso   1.00
C149   C     0.60711   0.83989   0.05862   0.00000  Uiso   1.00
O150   O     0.56253   0.82309   0.63283   0.00000  Uiso   1.00
O151   O     0.48136   0.81260   0.75824   0.00000  Uiso   1.00
N152   N     0.54007   0.82280   0.74403   0.00000  Uiso   1.00
H153   H     0.62372   0.77790   0.14197   0.00000  Uiso   1.00
H154   H     0.61903   0.86702   0.14179   0.00000  Uiso   1.00
H155   H     0.55938   0.73613   0.76837   0.00000  Uiso   1.00
C156   C     0.43218   0.26733   1.04864   0.00000  Uiso   1.00
C157   C     0.49129   0.27424   1.00406   0.00000  Uiso   1.00
C158   C     0.49142   0.22179   1.01062   0.00000  Uiso   1.00
C159   C     0.43481   0.16301   1.06239   0.00000  Uiso   1.00
C160   C     0.37755   0.15662   0.11170   0.00000  Uiso   1.00
C161   C     0.37627   0.20897   0.10456   0.00000  Uiso   1.00
O162   O     0.61266   0.35279  -0.01202   0.00000  Uiso   1.00
O163   O     0.54995   0.36723   0.87228   0.00000  Uiso   1.00
N164   N     0.55277   0.33454   0.95723   0.00000  Uiso   1.00
H165   H     0.33373   0.11149   0.15315   0.00000  Uiso   1.00
H166   H     0.33145   0.20369   0.14186   0.00000  Uiso   1.00
H167   H     0.53627   0.22676   0.97415   0.00000  Uiso   1.00
loop_
_geom_bond_atom_site_label_1
_geom_bond_atom_site_label_2
_geom_bond_distance
_geom_bond_site_symmetry_2
_ccdc_geom_bond_type
C0     O4      1.287   .     A
C0     O5      1.278   1_554 A
C0     C156    1.470   1_554 S
Ho1    O4      2.188   .     S
Ho1    O6      2.188   .     S
Ho1    O7      2.146   .     S
Ho1    O10     2.186   .     S
Ho1    O17     2.206   .     S
Ho1    O5      2.167   1_554 S
Ho1    O15     2.158   1_554 S
C2     O12     1.285   .     A
C2     O13     1.277   1_556 A
C2     C147    1.475   1_556 S
Ho3    O11     2.219   .     S
Ho3    O12     2.183   .     S
Ho3    O14     2.192   .     S
Ho3    O15     2.152   .     S
Ho3    O16     2.201   .     S
Ho3    O7      2.164   1_556 S
Ho3    O13     2.167   1_556 S
O5     C0      1.278   1_556 A
O5     Ho1     2.167   1_556 S
O6     C8      1.230   .     D
O7     C8      1.400   .     S
O7     Ho3     2.164   1_554 S
C8     C60     1.478   .     S
C9     O14     1.229   .     D
C9     O15     1.397   .     S
C9     C63     1.469   .     S
O10    C19     1.297   .     A
O11    C19     1.303   1_556 A
O13    C2      1.277   1_554 A
O13    Ho3     2.167   1_554 S
O15    Ho1     2.158   1_556 S
O16    C18     1.301   .     A
O17    C18     1.302   1_554 A
C18    O17     1.302   1_556 A
C18    C96     1.466   1_556 S
C19    O11     1.303   1_554 A
C19    C123    1.470   1_554 S
C20    O24     1.285   .     A
C20    C99     1.476   .     S
C20    O25     1.280   1_554 A
Ho21   O24     2.188   .     S
Ho21   O26     2.204   .     S
Ho21   O30     2.202   .     S
Ho21   O25     2.173   1_554 S
Ho21   O27     2.146   1_455 S
Ho21   O35     2.167   1_554 S
Ho21   O37     2.207   1_455 S
C22    O32     1.289   .     A
C22    C120    1.477   .     S
C22    O33     1.277   1_556 A
Ho23   O32     2.198   .     S
Ho23   O34     2.189   .     S
Ho23   O36     2.203   .     S
Ho23   O27     2.150   1_556 S
Ho23   O31     2.207   1_655 S
Ho23   O33     2.164   1_556 S
Ho23   O35     2.143   1_655 S
O25    C20     1.280   1_556 A
O25    Ho21    2.173   1_556 S
O26    C28     1.231   .     D
O27    Ho21    2.146   1_655 S
O27    Ho23    2.150   1_554 S
O27    C28     1.396   1_655 S
C28    C75     1.479   .     S
C28    O27     1.396   1_455 S
C29    O35     1.400   .     S
C29    O34     1.232   1_455 D
C29    C72     1.482   1_455 S
O30    C39     1.301   .     A
O31    Ho23    2.207   1_455 S
O31    C39     1.301   1_556 A
O33    C22     1.277   1_554 A
O33    Ho23    2.164   1_554 S
O34    C29     1.232   1_655 D
O35    Ho21    2.167   1_556 S
O35    Ho23    2.143   1_455 S
O36    C38     1.301   .     A
O37    Ho21    2.207   1_655 S
O37    C38     1.301   1_554 A
C38    C108    1.471   .     S
C38    O37     1.301   1_556 A
C39    O31     1.301   1_554 A
C39    C135    1.465   1_554 S
C40    O44     1.286   .     A
C40    O45     1.278   1_556 A
C40    C144    1.483   1_556 S
Ho41   O44     2.186   .     S
Ho41   O46     2.186   .     S
Ho41   O50     2.207   .     S
Ho41   O45     2.172   1_556 S
Ho41   O47     2.147   1_565 S
Ho41   O55     2.149   1_556 S
Ho41   O57     2.215   1_565 S
C42    O52     1.288   .     A
C42    O53     1.275   1_554 A
C42    C159    1.461   1_554 S
Ho43   O52     2.195   .     S
Ho43   O54     2.197   .     S
Ho43   O56     2.194   .     S
Ho43   O47     2.159   1_554 S
Ho43   O51     2.205   1_545 S
Ho43   O53     2.158   1_554 S
Ho43   O55     2.140   1_545 S
O45    C40     1.278   1_554 A
O45    Ho41    2.172   1_554 S
O46    C48     1.231   1_565 D
O47    C48     1.400   .     S
O47    Ho41    2.147   1_545 S
O47    Ho43    2.159   1_556 S
C48    C87     1.467   .     S
C48    O46     1.231   1_545 D
C49    O55     1.394   .     S
C49    O54     1.232   1_565 D
C49    C84     1.480   1_565 S
O50    C59     1.303   .     A
O51    Ho43    2.205   1_565 S
O51    C59     1.300   1_554 A
O53    C42     1.275   1_556 A
O53    Ho43    2.158   1_556 S
O54    C49     1.232   1_545 D
O55    Ho41    2.149   1_554 S
O55    Ho43    2.140   1_565 S
O56    C58     1.299   .     A
O57    Ho41    2.215   1_545 S
O57    C58     1.302   1_556 A
C58    C111    1.470   .     S
C58    O57     1.302   1_554 A
C59    O51     1.300   1_556 A
C59    C132    1.472   1_556 S
C60    C61     1.421   .     A
C60    C65     1.408   .     A
C61    C62     1.402   .     A
C61    N68     1.434   .     S
C62    C63     1.404   .     A
C62    H71     1.081   .     S
C63    C64     1.402   .     A
C64    C65     1.400   .     A
C64    H69     1.085   .     S
C65    H70     1.083   .     S
O66    N68     1.306   .     A
O67    N68     1.308   .     A
C72    C73     1.419   .     A
C72    C77     1.407   1_655 A
C72    C29     1.482   1_655 S
C73    C74     1.404   .     A
C73    N80     1.435   .     S
C74    H83     1.085   .     S
C74    C75     1.404   1_655 A
C75    C76     1.400   .     A
C75    C74     1.404   1_455 A
C76    C77     1.398   .     A
C76    H81     1.083   .     S
C77    H82     1.083   .     S
C77    C72     1.407   1_455 A
O78    N80     1.302   .     A
O79    N80     1.303   .     A
C84    C89     1.409   .     A
C84    C85     1.428   1_545 A
C84    C49     1.480   1_545 S
C85    C86     1.405   .     A
C85    N92     1.442   .     S
C85    C84     1.428   1_565 A
C86    H95     1.085   .     S
C86    C87     1.400   1_565 A
C87    C88     1.402   .     A
C87    C86     1.400   1_545 A
C88    C89     1.394   .     A
C88    H93     1.084   .     S
C89    H94     1.082   .     S
O90    N92     1.310   .     A
O91    N92     1.305   .     A
C96    C101    1.404   .     A
C96    C97     1.420   1_554 A
C96    C18     1.466   1_554 S
C97    C98     1.410   .     A
C97    N104    1.443   .     S
C97    C96     1.420   1_556 A
C98    H107    1.084   .     S
C98    C99     1.405   1_556 A
C99    C100    1.402   .     A
C99    C98     1.405   1_554 A
C100   C101    1.396   .     A
C100   H105    1.085   .     S
C101   H106    1.085   .     S
O102   N104    1.300   .     A
O103   N104    1.303   .     A
C108   C109    1.420   .     A
C108   C113    1.405   1_556 A
C109   C110    1.412   .     A
C109   N116    1.443   .     S
C110   H119    1.086   .     S
C110   C111    1.406   1_556 A
C111   C112    1.404   .     A
C111   C110    1.406   1_554 A
C112   C113    1.389   .     A
C112   H117    1.083   .     S
C113   H118    1.086   .     S
C113   C108    1.405   1_554 A
O114   N116    1.304   .     A
O115   N116    1.303   .     A
C120   C121    1.425   .     A
C120   C125    1.402   1_556 A
C121   C122    1.416   .     A
C121   N128    1.438   .     S
C122   C123    1.404   .     A
C122   H131    1.086   .     S
C123   C124    1.400   1_556 A
C123   C19     1.470   1_556 S
C124   C125    1.388   .     A
C124   H129    1.084   .     S
C124   C123    1.400   1_554 A
C125   H130    1.083   .     S
C125   C120    1.402   1_554 A
O126   N128    1.304   .     A
O127   N128    1.305   1_554 A
N128   O127    1.305   1_556 A
C132   C133    1.414   .     A
C132   C137    1.406   1_554 A
C132   C59     1.472   1_554 S
C133   C134    1.400   .     A
C133   N140    1.428   .     S
C134   H143    1.087   .     S
C134   C135    1.401   1_554 A
C135   C136    1.402   .     A
C135   C134    1.401   1_556 A
C135   C39     1.465   1_556 S
C136   C137    1.400   .     A
C136   H141    1.083   .     S
C137   H142    1.085   .     S
C137   C132    1.406   1_556 A
O138   N140    1.306   .     A
O139   N140    1.305   .     A
C144   C149    1.407   .     A
C144   C145    1.422   1_554 A
C144   C40     1.483   1_554 S
C145   C146    1.407   .     A
C145   N152    1.436   .     S
C145   C144    1.422   1_556 A
C146   H155    1.086   .     S
C146   C147    1.404   1_556 A
C147   C148    1.402   .     A
C147   C146    1.404   1_554 A
C147   C2      1.475   1_554 S
C148   C149    1.394   .     A
C148   H153    1.080   .     S
C149   H154    1.081   .     S
O150   N152    1.304   .     A
O151   N152    1.303   .     A
C156   C157    1.418   .     A
C156   C161    1.405   1_556 A
C156   C0      1.470   1_556 S
C157   C158    1.393   .     A
C157   N164    1.439   .     S
C158   C159    1.399   .     A
C158   H167    1.088   .     S
C159   C160    1.398   1_556 A
C159   C42     1.461   1_556 S
C160   C161    1.408   .     A
C160   H165    1.083   .     S
C160   C159    1.398   1_554 A
C161   H166    1.086   .     S
C161   C156    1.405   1_554 A
O162   N164    1.301   1_554 A
O163   N164    1.304   .     A
N164   O162    1.301   1_556 A
