data_kag+N394+E191
_audit_creation_date              2025-01-21
_audit_creation_method            'Materials Studio'
_symmetry_space_group_name_H-M    'P1'
_symmetry_Int_Tables_number       1
_symmetry_cell_setting            triclinic
loop_
_symmetry_equiv_pos_as_xyz
  x,y,z
_cell_length_a                    35.3367
_cell_length_b                    37.6588
_cell_length_c                    16.4570
_cell_angle_alpha                 95.8677
_cell_angle_beta                  96.4201
_cell_angle_gamma                 113.8847
loop_
_atom_site_label
_atom_site_type_symbol
_atom_site_fract_x
_atom_site_fract_y
_atom_site_fract_z
_atom_site_U_iso_or_equiv
_atom_site_adp_type
_atom_site_occupancy
Pr0    Pr    0.51388   0.54599  -0.01466   0.00000  Uiso   1.00
Pr1    Pr    0.48736   0.45836   1.02143   0.00000  Uiso   1.00
O2     O     0.42726   0.46631   1.04170   0.00000  Uiso   1.00
O3     O     0.44686   0.53002   0.01630   0.00000  Uiso   1.00
O4     O     0.50846   0.58968   0.90519   0.00000  Uiso   1.00
O5     O     0.54731   0.61233   0.02551   0.00000  Uiso   1.00
O6     O     0.52869   0.51841   0.09323   0.00000  Uiso   1.00
O7     O     0.49567   0.55346   0.11563   0.00000  Uiso   1.00
C8     C     0.49125   0.47115   0.85929   0.00000  Uiso   1.00
C9     C     0.41991   0.49723   0.03452   0.00000  Uiso   1.00
C10    C     0.53191   0.61992   0.95890   0.00000  Uiso   1.00
C11    C     0.46885   0.38419   0.04669   0.00000  Uiso   1.00
C12    C     0.58131   0.50720   0.97176   0.00000  Uiso   1.00
C13    C     0.50998   0.53312   0.14752   0.00000  Uiso   1.00
O14    O     0.57396   0.53812  -0.03518   0.00000  Uiso   1.00
O15    O     0.55439   0.47438   0.99010   0.00000  Uiso   1.00
O16    O     0.49239   0.41422   0.10086   0.00000  Uiso   1.00
O17    O     0.45370   0.39216   0.98034   0.00000  Uiso   1.00
O18    O     0.47257   0.48593   0.91357   0.00000  Uiso   1.00
O19    O     0.50557   0.45084   0.89121   0.00000  Uiso   1.00
Pr20   Pr    0.97620   0.45740   1.01360   0.00000  Uiso   1.00
Pr21   Pr    0.02535   0.54732  -0.00913   0.00000  Uiso   1.00
O22    O     0.95632   0.53822  -0.04665   0.00000  Uiso   1.00
O23    O     0.92129   0.47292   0.96693   0.00000  Uiso   1.00
O24    O     0.93412   0.40955   0.07772   0.00000  Uiso   1.00
O25    O     0.95173   0.39215   0.96452   0.00000  Uiso   1.00
O26    O     0.01316   0.48879   0.91945   0.00000  Uiso   1.00
O27    O     0.94863   0.45319   0.87578   0.00000  Uiso   1.00
C28    C     0.02094   0.53005   0.14963   0.00000  Uiso   1.00
C29    C     0.92207   0.50648   0.95110   0.00000  Uiso   1.00
C30    C     0.93052   0.38139   0.02262   0.00000  Uiso   1.00
C31    C     0.07128   0.62321   0.98093   0.00000  Uiso   1.00
C32    C     0.07934   0.49813   0.05393   0.00000  Uiso   1.00
C33    C     0.98054   0.47476   0.85493   0.00000  Uiso   1.00
O34    O     0.04508   0.46644   1.05185   0.00000  Uiso   1.00
O35    O     0.08018   0.53163   0.03751   0.00000  Uiso   1.00
O36    O     0.06742   0.59486   0.92610   0.00000  Uiso   1.00
O37    O     0.05017   0.61272   0.03931   0.00000  Uiso   1.00
O38    O     0.98833   0.51593   0.08507   0.00000  Uiso   1.00
O39    O     0.05281   0.55164   0.12880   0.00000  Uiso   1.00
Pr40   Pr    0.54825   0.02833  -0.01446   0.00000  Uiso   1.00
Pr41   Pr    0.45347   0.97543   1.00527   0.00000  Uiso   1.00
O42    O     0.45652   0.03800   0.03892   0.00000  Uiso   1.00
O43    O     0.52521   0.07584   0.02645   0.00000  Uiso   1.00
O44    O     0.59750   0.07038   0.92205   0.00000  Uiso   1.00
O45    O     0.61792   0.05687   0.03823   0.00000  Uiso   1.00
O46    O     0.51688   0.99229   0.07987   0.00000  Uiso   1.00
O47    O     0.55009   0.05347   0.12202   0.00000  Uiso   1.00
C48    C     0.47253   0.98039   0.84749   0.00000  Uiso   1.00
C49    C     0.48815   0.07179   0.04063   0.00000  Uiso   1.00
C50    C     0.62806   0.07660   0.97933   0.00000  Uiso   1.00
C51    C     0.37391   0.92712   0.01338   0.00000  Uiso   1.00
C52    C     0.51382   0.93208   0.95055   0.00000  Uiso   1.00
C53    C     0.52915   0.02286   0.14330   0.00000  Uiso   1.00
O54    O     0.54545   0.96588   0.95253   0.00000  Uiso   1.00
O55    O     0.47663   0.92793   0.96419   0.00000  Uiso   1.00
O56    O     0.40483   0.93344   0.06985   0.00000  Uiso   1.00
O57    O     0.38356   0.94677   0.95410   0.00000  Uiso   1.00
O58    O     0.48474   0.01119   0.91047   0.00000  Uiso   1.00
O59    O     0.45185   0.94980   0.86937   0.00000  Uiso   1.00
Ni60   Ni    0.50058   0.50196   0.50330   0.00000  Uiso   1.00
C61    C     0.50742   0.52533   0.23341   0.00000  Uiso   1.00
C62    C     0.52509   0.50134   0.26566   0.00000  Uiso   1.00
C63    C     0.52259   0.49453   0.34734   0.00000  Uiso   1.00
C64    C     0.48555   0.53424   0.36550   0.00000  Uiso   1.00
C65    C     0.48731   0.54179   0.28422   0.00000  Uiso   1.00
H66    H     0.52832   0.44405   0.74586   0.00000  Uiso   1.00
H67    H     0.46012   0.51582   0.77804   0.00000  Uiso   1.00
H68    H     0.46457   0.52755   0.63352   0.00000  Uiso   1.00
H69    H     0.53124   0.45726   0.60210   0.00000  Uiso   1.00
N70    N     0.49802   0.49292   0.61121   0.00000  Uiso   1.00
N71    N     0.50312   0.51103   0.39541   0.00000  Uiso   1.00
H72    H     0.54077   0.48807   0.22822   0.00000  Uiso   1.00
H73    H     0.53625   0.47613   0.37260   0.00000  Uiso   1.00
H74    H     0.47020   0.54694   0.40499   0.00000  Uiso   1.00
H75    H     0.47320   0.56037   0.26140   0.00000  Uiso   1.00
C76    C     0.49375   0.47882   0.77331   0.00000  Uiso   1.00
C77    C     0.47589   0.50261   0.74077   0.00000  Uiso   1.00
C78    C     0.47837   0.50930   0.65902   0.00000  Uiso   1.00
C79    C     0.51576   0.46988   0.64140   0.00000  Uiso   1.00
C80    C     0.51402   0.46244   0.72275   0.00000  Uiso   1.00
Ni81   Ni    0.00078   0.50264   0.50244   0.00000  Uiso   1.00
C82    C    -0.01558   0.48345   0.77040   0.00000  Uiso   1.00
C83    C    -0.05032   0.46658   0.70626   0.00000  Uiso   1.00
C84    C     0.95515   0.47333   0.62560   0.00000  Uiso   1.00
C85    C     0.02777   0.51348   0.67101   0.00000  Uiso   1.00
C86    C     0.02373   0.50754   0.75245   0.00000  Uiso   1.00
H87    H     0.95036   0.48365   0.20419   0.00000  Uiso   1.00
H88    H     0.08254   0.55733   0.28650   0.00000  Uiso   1.00
H89    H     0.07276   0.54551   0.42941   0.00000  Uiso   1.00
H90    H     0.94351   0.47347   0.34863   0.00000  Uiso   1.00
N91    N     0.00773   0.50916   0.39518   0.00000  Uiso   1.00
N92    N    -0.00617   0.49609   0.60965   0.00000  Uiso   1.00
H93    H    -0.08110   0.44789   0.71812   0.00000  Uiso   1.00
H94    H     0.92873   0.45998   0.57537   0.00000  Uiso   1.00
H95    H     0.05811   0.53148   0.65628   0.00000  Uiso   1.00
H96    H     0.05119   0.52104   0.80056   0.00000  Uiso   1.00
C97    C     1.01706   0.52148   0.23428   0.00000  Uiso   1.00
C98    C     0.05179   0.53859   0.29842   0.00000  Uiso   1.00
C99    C     0.04634   0.53199   0.37919   0.00000  Uiso   1.00
C100   C     0.97379   0.49154   0.33385   0.00000  Uiso   1.00
C101   C     0.97781   0.49733   0.25229   0.00000  Uiso   1.00
Ni102  Ni    0.50018   0.00116   0.49491   0.00000  Uiso   1.00
C103   C     0.51979   0.01851   0.22747   0.00000  Uiso   1.00
C104   C     0.53679   0.05090   0.29169   0.00000  Uiso   1.00
C105   C     0.52986   0.04510   0.37220   0.00000  Uiso   1.00
C106   C     0.48907   0.97674   0.32633   0.00000  Uiso   1.00
C107   C     0.49526   0.98118   0.24507   0.00000  Uiso   1.00
H108   H     0.51928   0.04748   0.79249   0.00000  Uiso   1.00
H109   H     0.44558   0.92268   0.71137   0.00000  Uiso   1.00
H110   H     0.45739   0.93260   0.56841   0.00000  Uiso   1.00
H111   H     0.52949   0.05463   0.64814   0.00000  Uiso   1.00
N112   N     0.49376   0.99404   0.60207   0.00000  Uiso   1.00
N113   N     0.50672   0.00842   0.38782   0.00000  Uiso   1.00
H114   H     0.55588   0.08012   0.28013   0.00000  Uiso   1.00
H115   H     0.54347   0.06972   0.42258   0.00000  Uiso   1.00
H116   H     0.47077   0.94795   0.34079   0.00000  Uiso   1.00
H117   H     0.48163   0.95557   0.19686   0.00000  Uiso   1.00
C118   C     0.48151   0.98443   0.76304   0.00000  Uiso   1.00
C119   C     0.46444   0.95186   0.69921   0.00000  Uiso   1.00
C120   C     0.47096   0.95739   0.61841   0.00000  Uiso   1.00
C121   C     0.51141   0.02589   0.66315   0.00000  Uiso   1.00
C122   C     0.50565   0.02172   0.74466   0.00000  Uiso   1.00
Ni123  Ni    0.24953   0.49304   0.08182   0.00000  Uiso   1.00
C124   C     0.37878   0.49581   0.04976   0.00000  Uiso   1.00
C125   C     0.37156   0.52993   0.05215   0.00000  Uiso   1.00
C126   C     0.33245   0.52817   0.06402   0.00000  Uiso   1.00
C127   C     0.30728   0.46020   1.07230   0.00000  Uiso   1.00
C128   C     0.34612   0.46063   1.06080   0.00000  Uiso   1.00
H129   H     0.15681   0.55969   0.09933   0.00000  Uiso   1.00
H130   H     0.09533   0.43244   1.05247   0.00000  Uiso   1.00
H131   H     0.16522   0.43150   1.06478   0.00000  Uiso   1.00
H132   H     0.22495   0.55577   0.11070   0.00000  Uiso   1.00
N133   N     0.19812   0.49356   1.08841   0.00000  Uiso   1.00
N134   N     0.30128   0.49370   0.07332   0.00000  Uiso   1.00
H135   H     0.39575   0.55775   0.04429   0.00000  Uiso   1.00
H136   H     0.32661   0.55426   0.06463   0.00000  Uiso   1.00
H137   H     0.28175   0.43309   1.07925   0.00000  Uiso   1.00
H138   H     0.35026   0.43363   1.05927   0.00000  Uiso   1.00
C139   C     0.12032   0.49625   1.07412   0.00000  Uiso   1.00
C140   C     0.12322   0.45995   1.06717   0.00000  Uiso   1.00
C141   C     0.16276   0.45929   1.07410   0.00000  Uiso   1.00
C142   C     0.19625   0.52901   0.09972   0.00000  Uiso   1.00
C143   C     0.15754   0.53107   0.09285   0.00000  Uiso   1.00
Ni144  Ni    0.79493   0.21664   1.00290   0.00000  Uiso   1.00
C145   C     0.90220   0.33998   1.02355   0.00000  Uiso   1.00
C146   C     0.89508   0.31062   0.95635   0.00000  Uiso   1.00
C147   C     0.86393   0.27271   0.95328   0.00000  Uiso   1.00
C148   C     0.84828   0.29169   0.08264   0.00000  Uiso   1.00
C149   C     0.87903   0.32997   0.08817   0.00000  Uiso   1.00
H150   H     0.65706   0.11981   0.85822   0.00000  Uiso   1.00
H151   H     0.69633   0.10129   0.10250   0.00000  Uiso   1.00
H152   H     0.76419   0.15842   0.10953   0.00000  Uiso   1.00
H153   H     0.72574   0.17629   0.87052   0.00000  Uiso   1.00
N154   N     0.74806   0.16971  -0.00979   0.00000  Uiso   1.00
N155   N     0.84087   0.26425   1.01528   0.00000  Uiso   1.00
H156   H     0.91216   0.31730   0.90509   0.00000  Uiso   1.00
H157   H     0.85691   0.25041   0.89991   0.00000  Uiso   1.00
H158   H     0.82905   0.28423   0.13048   0.00000  Uiso   1.00
H159   H     0.88352   0.35183   0.14086   0.00000  Uiso   1.00
C160   C     0.67113   0.10615  -0.02027   0.00000  Uiso   1.00
C161   C     0.70231   0.11663   0.04989   0.00000  Uiso   1.00
C162   C     0.74080   0.14891   0.05400   0.00000  Uiso   1.00
C163   C     0.71921   0.15894   0.91992   0.00000  Uiso   1.00
C164   C     0.68031   0.12701   0.91330   0.00000  Uiso   1.00
Ni165  Ni    0.75168   0.51148   0.92392   0.00000  Uiso   1.00
C166   C     0.88102   0.50832  -0.06850   0.00000  Uiso   1.00
C167   C     0.87809   0.54461  -0.06184   0.00000  Uiso   1.00
C168   C     0.83854   0.54527  -0.06847   0.00000  Uiso   1.00
C169   C     0.80506   0.47556   0.90713   0.00000  Uiso   1.00
C170   C     0.84378   0.47351   0.91366   0.00000  Uiso   1.00
H171   H     0.65107   0.57097  -0.05216   0.00000  Uiso   1.00
H172   H     0.60516   0.44652   0.95970   0.00000  Uiso   1.00
H173   H     0.67426   0.45001   0.93898   0.00000  Uiso   1.00
H174   H     0.71955   0.57151  -0.07249   0.00000  Uiso   1.00
N175   N     0.69985   0.51076   0.93195   0.00000  Uiso   1.00
N176   N     0.80318   0.51102  -0.08220   0.00000  Uiso   1.00
H177   H     0.90599   0.57213  -0.04771   0.00000  Uiso   1.00
H178   H     0.83610   0.57309  -0.05947   0.00000  Uiso   1.00
H179   H     0.77639   0.44882   0.89686   0.00000  Uiso   1.00
H180   H     0.84448   0.44488   0.90754   0.00000  Uiso   1.00
C181   C     0.62237   0.50863   0.95601   0.00000  Uiso   1.00
C182   C     0.62945   0.47441   0.95247   0.00000  Uiso   1.00
C183   C     0.66853   0.47618   0.94034   0.00000  Uiso   1.00
C184   C     0.69393   0.54433  -0.06619   0.00000  Uiso   1.00
C185   C     0.65512   0.54389  -0.05444   0.00000  Uiso   1.00
Ni186  Ni    0.20716   0.78753  -0.00402   0.00000  Uiso   1.00
C187   C     0.33099   0.89762   1.01435   0.00000  Uiso   1.00
C188   C     0.29915   0.88711   0.94537   0.00000  Uiso   1.00
C189   C     0.26070   0.85499   0.94269   0.00000  Uiso   1.00
C190   C     0.28367   0.84506   0.07592   0.00000  Uiso   1.00
C191   C     0.32252   0.87685   0.08114   0.00000  Uiso   1.00
H192   H     0.11742   0.65211   0.86115   0.00000  Uiso   1.00
H193   H     0.09094   0.68770   0.09842   0.00000  Uiso   1.00
H194   H     0.14615   0.75442   0.10164   0.00000  Uiso   1.00
H195   H     0.17187   0.71954   0.86960   0.00000  Uiso   1.00
N196   N     0.16116   0.74005  -0.01455   0.00000  Uiso   1.00
N197   N     0.25412   0.83428   1.00676   0.00000  Uiso   1.00
H198   H     0.30455   0.90240   0.89258   0.00000  Uiso   1.00
H199   H     0.23673   0.84555   0.88811   0.00000  Uiso   1.00
H200   H     0.27765   0.82783   0.12560   0.00000  Uiso   1.00
H201   H     0.34625   0.88408   0.13544   0.00000  Uiso   1.00
C202   C     0.09973   0.66452  -0.02071   0.00000  Uiso   1.00
C203   C     0.10751   0.69412   0.04643   0.00000  Uiso   1.00
C204   C     0.13868   0.73193   0.04844   0.00000  Uiso   1.00
C205   C     0.15313   0.71234   0.91826   0.00000  Uiso   1.00
C206   C     0.12235   0.67418   0.91378   0.00000  Uiso   1.00
Ni207  Ni    0.53791   0.78070   0.92423   0.00000  Uiso   1.00
C208   C     0.52022   0.89569   0.93341   0.00000  Uiso   1.00
C209   C     0.48561   0.85878   0.91685   0.00000  Uiso   1.00
C210   C     0.49213   0.82456   0.91054   0.00000  Uiso   1.00
C211   C     0.56589   0.86191  -0.06656   0.00000  Uiso   1.00
C212   C     0.56082   0.89703  -0.06018   0.00000  Uiso   1.00
H213   H     0.50209   0.64224   0.82225   0.00000  Uiso   1.00
H214   H     0.57604   0.68874   0.06762   0.00000  Uiso   1.00
H215   H     0.57845   0.75396   0.05008   0.00000  Uiso   1.00
H216   H     0.50613   0.70838   0.81032   0.00000  Uiso   1.00
N217   N     0.54272   0.73410   0.92924   0.00000  Uiso   1.00
N218   N     0.53171   0.82673   0.92045   0.00000  Uiso   1.00
H219   H     0.45376   0.85628   0.91105   0.00000  Uiso   1.00
H220   H     0.46559   0.79611   0.90041   0.00000  Uiso   1.00
H221   H     0.59705   0.86272  -0.05857   0.00000  Uiso   1.00
H222   H     0.58837   0.92484  -0.04703   0.00000  Uiso   1.00
C223   C     0.53874   0.66019   0.94621   0.00000  Uiso   1.00
C224   C     0.56122   0.69239   0.00978   0.00000  Uiso   1.00
C225   C     0.56274   0.72935  -0.00001   0.00000  Uiso   1.00
C226   C     0.52216   0.70378   0.86545   0.00000  Uiso   1.00
C227   C     0.51983   0.66636   0.87259   0.00000  Uiso   1.00
Ni228  Ni    0.46329   0.22307   0.07408   0.00000  Uiso   1.00
C229   C     0.46166   0.34373   0.05832   0.00000  Uiso   1.00
C230   C     0.48012   0.33689   0.13164   0.00000  Uiso   1.00
C231   C     0.47785   0.29934   0.13717   0.00000  Uiso   1.00
C232   C     0.43799   0.27492   1.00184   0.00000  Uiso   1.00
C233   C     0.43944   0.31200   0.99367   0.00000  Uiso   1.00
H234   H     0.41448   0.07918   0.05433   0.00000  Uiso   1.00
H235   H     0.54774   0.14784   1.06534   0.00000  Uiso   1.00
H236   H     0.53567   0.20777   1.07903   0.00000  Uiso   1.00
H237   H     0.40553   0.14116   0.06833   0.00000  Uiso   1.00
N238   N     0.47020   0.17719   1.07451   0.00000  Uiso   1.00
N239   N     0.45777   0.26955   0.07213   0.00000  Uiso   1.00
H240   H     0.49757   0.36063   0.18285   0.00000  Uiso   1.00
H241   H     0.49370   0.29431   0.19195   0.00000  Uiso   1.00
H242   H     0.42267   0.25078   0.95070   0.00000  Uiso   1.00
H243   H     0.42492   0.31616   0.93609   0.00000  Uiso   1.00
C244   C     0.48196   0.10831   1.05832   0.00000  Uiso   1.00
C245   C     0.51618   0.14526   1.06694   0.00000  Uiso   1.00
C246   C     0.50954   0.17939   1.07491   0.00000  Uiso   1.00
C247   C     0.43654   0.14205   0.06891   0.00000  Uiso   1.00
C248   C     0.44176   0.10698   0.06101   0.00000  Uiso   1.00
loop_
_geom_bond_atom_site_label_1
_geom_bond_atom_site_label_2
_geom_bond_distance
_geom_bond_site_symmetry_2
_ccdc_geom_bond_type
Pr0    O3      2.326   .     S
Pr0    O5      2.274   .     S
Pr0    O6      2.262   .     S
Pr0    O7      2.329   .     S
Pr0    O14     2.315   .     S
Pr0    O4      2.264   1_554 S
Pr0    O18     2.244   1_554 S
Pr1    O2      2.316   .     S
Pr1    O15     2.328   .     S
Pr1    O17     2.272   .     S
Pr1    O18     2.261   .     S
Pr1    O19     2.328   .     S
Pr1    O6      2.244   1_556 S
Pr1    O16     2.266   1_556 S
O2     C9      1.305   1_556 A
O3     C9      1.307   .     A
O4     C10     1.277   .     A
O4     Pr0     2.264   1_556 S
O5     C10     1.279   1_554 A
O6     C13     1.367   .     S
O6     Pr1     2.244   1_554 S
O7     C13     1.206   .     D
C8     O18     1.368   .     S
C8     O19     1.205   .     D
C8     C76     1.478   .     S
C9     C124    1.483   .     S
C9     O2      1.305   1_554 A
C10    C223    1.477   .     S
C10    O5      1.279   1_556 A
C11    O16     1.277   .     A
C11    C229    1.477   .     S
C11    O17     1.279   1_554 A
C12    O15     1.308   .     A
C12    C181    1.483   .     S
C12    O14     1.305   1_556 A
C13    C61     1.478   .     S
O14    C12     1.305   1_554 A
O16    Pr1     2.266   1_554 S
O17    C11     1.279   1_556 A
O18    Pr0     2.244   1_556 S
Pr20   O23     2.318   .     S
Pr20   O25     2.271   .     S
Pr20   O27     2.329   .     S
Pr20   O24     2.268   1_556 S
Pr20   O26     2.254   1_655 S
Pr20   O34     2.319   1_655 S
Pr20   O38     2.240   1_556 S
Pr21   O35     2.319   .     S
Pr21   O37     2.272   .     S
Pr21   O39     2.329   .     S
Pr21   O22     2.322   1_455 S
Pr21   O26     2.239   1_554 S
Pr21   O36     2.267   1_554 S
Pr21   O38     2.256   1_455 S
O22    Pr21    2.322   1_655 S
O22    C29     1.306   1_554 A
O23    C29     1.306   .     A
O24    C30     1.277   .     A
O24    Pr20    2.268   1_554 S
O25    C30     1.278   1_556 A
O26    Pr20    2.254   1_455 S
O26    Pr21    2.239   1_556 S
O26    C33     1.361   1_455 S
O27    C33     1.205   .     D
C28    O39     1.204   .     D
C28    O38     1.361   1_455 S
C28    C97     1.471   1_455 S
C29    O22     1.306   1_556 A
C29    C166    1.481   1_556 S
C30    O25     1.278   1_554 A
C30    C145    1.476   1_554 S
C31    O36     1.277   .     A
C31    O37     1.279   1_556 A
C31    C202    1.476   1_556 S
C32    O35     1.306   .     A
C32    O34     1.305   1_554 A
C32    C139    1.481   1_554 S
C33    O26     1.361   1_655 S
C33    C82     1.470   1_655 S
O34    Pr20    2.319   1_455 S
O34    C32     1.305   1_556 A
O36    Pr21    2.267   1_556 S
O37    C31     1.279   1_554 A
O38    Pr20    2.240   1_554 S
O38    Pr21    2.256   1_655 S
O38    C28     1.361   1_655 S
Pr40   O43     2.318   .     S
Pr40   O45     2.271   .     S
Pr40   O47     2.330   .     S
Pr40   O44     2.268   1_554 S
Pr40   O46     2.253   1_545 S
Pr40   O54     2.318   1_544 S
Pr40   O58     2.241   1_554 S
Pr41   O55     2.321   .     S
Pr41   O57     2.273   .     S
Pr41   O59     2.329   .     S
Pr41   O42     2.320   1_566 S
Pr41   O46     2.237   1_556 S
Pr41   O56     2.266   1_556 S
Pr41   O58     2.253   1_565 S
O42    C49     1.305   .     A
O42    Pr41    2.320   1_544 S
O43    C49     1.306   .     A
O44    C50     1.278   .     A
O44    Pr40    2.268   1_556 S
O45    C50     1.277   1_554 A
O46    Pr40    2.253   1_565 S
O46    Pr41    2.237   1_554 S
O46    C53     1.361   1_565 S
O47    C53     1.204   .     D
C48    O59     1.205   .     D
C48    C118    1.469   .     S
C48    O58     1.362   1_565 S
C49    C244    1.483   1_554 S
C50    O45     1.277   1_556 A
C50    C160    1.476   1_556 S
C51    O56     1.277   .     A
C51    O57     1.278   1_554 A
C51    C187    1.476   1_554 S
C52    O54     1.305   .     A
C52    O55     1.307   .     A
C52    C208    1.481   .     S
C53    C103    1.470   .     S
C53    O46     1.361   1_545 S
O54    Pr40    2.318   1_566 S
O56    Pr41    2.266   1_554 S
O57    C51     1.278   1_556 A
O58    Pr40    2.241   1_556 S
O58    Pr41    2.253   1_545 S
O58    C48     1.362   1_545 S
Ni60   N70     1.847   .     S
Ni60   N71     1.847   .     S
C61    C62     1.403   .     A
C61    C65     1.404   .     A
C62    C63     1.400   .     A
C62    H72     1.083   .     S
C63    N71     1.361   .     A
C63    H73     1.082   .     S
C64    C65     1.399   .     A
C64    N71     1.360   .     A
C64    H74     1.082   .     S
C65    H75     1.083   .     S
H66    C80     1.083   .     S
H67    C77     1.083   .     S
H68    C78     1.082   .     S
H69    C79     1.082   .     S
N70    C78     1.361   .     A
N70    C79     1.361   .     A
C76    C77     1.403   .     A
C76    C80     1.404   .     A
C77    C78     1.400   .     A
C79    C80     1.399   .     A
Ni81   N91     1.837   .     S
Ni81   N92     1.836   .     S
C82    C83     1.402   .     A
C82    C86     1.402   .     A
C82    C33     1.470   1_455 S
C83    H93     1.083   .     S
C83    C84     1.397   1_455 A
C84    H94     1.082   .     S
C84    C83     1.397   1_655 A
C84    N92     1.360   1_655 A
C85    C86     1.395   .     A
C85    N92     1.358   .     A
C85    H95     1.082   .     S
C86    H96     1.083   .     S
H87    C101    1.083   .     S
H88    C98     1.083   .     S
H89    C99     1.082   .     S
H90    C100    1.082   .     S
N91    C99     1.359   .     A
N91    C100    1.359   1_455 A
N92    C84     1.360   1_455 A
C97    C101    1.402   .     A
C97    C98     1.402   1_655 A
C97    C28     1.471   1_655 S
C98    C99     1.397   .     A
C98    C97     1.402   1_455 A
C100   C101    1.395   .     A
C100   N91     1.359   1_655 A
Ni102  N113    1.836   .     S
Ni102  N112    1.836   1_545 S
C103   C104    1.402   .     A
C103   C107    1.402   1_545 A
C104   C105    1.397   .     A
C104   H114    1.083   .     S
C105   N113    1.359   .     A
C105   H115    1.082   .     S
C106   C107    1.395   .     A
C106   H116    1.082   .     S
C106   N113    1.358   1_565 A
C107   H117    1.083   .     S
C107   C103    1.402   1_565 A
H108   C122    1.083   .     S
H109   C119    1.083   .     S
H110   C120    1.082   .     S
H111   C121    1.082   .     S
N112   C120    1.360   .     A
N112   Ni102   1.836   1_565 S
N112   C121    1.358   1_565 A
N113   C106    1.358   1_545 A
C118   C119    1.403   .     A
C118   C122    1.402   1_565 A
C119   C120    1.397   .     A
C121   C122    1.394   .     A
C121   N112    1.358   1_545 A
C122   C118    1.402   1_545 A
Ni123  N134    1.840   .     S
Ni123  N133    1.840   1_554 S
C124   C125    1.406   .     A
C124   C128    1.406   1_554 A
C125   C126    1.393   .     A
C125   H135    1.083   .     S
C126   N134    1.357   .     A
C126   H136    1.082   .     S
C127   C128    1.400   .     A
C127   H137    1.082   .     S
C127   N134    1.360   1_556 A
C128   H138    1.083   .     S
C128   C124    1.406   1_556 A
H129   C143    1.083   .     S
H130   C140    1.083   .     S
H131   C141    1.082   .     S
H132   C142    1.082   .     S
N133   C141    1.360   .     A
N133   Ni123   1.840   1_556 S
N133   C142    1.358   1_556 A
N134   C127    1.360   1_554 A
C139   C140    1.406   .     A
C139   C143    1.405   1_556 A
C139   C32     1.481   1_556 S
C140   C141    1.399   .     A
C142   C143    1.394   .     A
C142   N133    1.358   1_554 A
C143   C139    1.405   1_554 A
Ni144  N155    1.840   .     S
Ni144  N154    1.840   1_556 S
C145   C146    1.404   .     A
C145   C149    1.404   1_556 A
C145   C30     1.476   1_556 S
C146   C147    1.398   .     A
C146   H156    1.083   .     S
C147   N155    1.360   .     A
C147   H157    1.082   .     S
C148   C149    1.396   .     A
C148   H158    1.082   .     S
C148   N155    1.359   1_554 A
C149   H159    1.083   .     S
C149   C145    1.404   1_554 A
H150   C164    1.083   .     S
H151   C161    1.083   .     S
H152   C162    1.082   .     S
H153   C163    1.081   .     S
N154   C162    1.359   .     A
N154   Ni144   1.840   1_554 S
N154   C163    1.359   1_554 A
N155   C148    1.359   1_556 A
C160   C161    1.405   .     A
C160   C164    1.402   1_554 A
C160   C50     1.476   1_554 S
C161   C162    1.399   .     A
C163   C164    1.396   .     A
C163   N154    1.359   1_556 A
C164   C160    1.402   1_556 A
Ni165  N175    1.841   .     S
Ni165  N176    1.841   1_556 S
C166   C167    1.406   .     A
C166   C170    1.405   1_554 A
C166   C29     1.481   1_554 S
C167   C168    1.400   .     A
C167   H177    1.083   .     S
C168   N176    1.360   .     A
C168   H178    1.082   .     S
C169   C170    1.394   .     A
C169   H179    1.082   .     S
C169   N176    1.359   1_556 A
C170   H180    1.083   .     S
C170   C166    1.405   1_556 A
H171   C185    1.083   .     S
H172   C182    1.083   .     S
H173   C183    1.082   .     S
H174   C184    1.082   .     S
N175   C183    1.358   .     A
N175   C184    1.360   1_556 A
N176   Ni165   1.841   1_554 S
N176   C169    1.359   1_554 A
C181   C182    1.405   .     A
C181   C185    1.407   1_556 A
C182   C183    1.393   .     A
C184   C185    1.400   .     A
C184   N175    1.360   1_554 A
C185   C181    1.407   1_554 A
Ni186  N196    1.841   .     S
Ni186  N197    1.841   1_554 S
C187   C188    1.405   .     A
C187   C191    1.403   1_556 A
C187   C51     1.476   1_556 S
C188   C189    1.399   .     A
C188   H198    1.083   .     S
C189   N197    1.360   .     A
C189   H199    1.082   .     S
C190   C191    1.396   .     A
C190   H200    1.082   .     S
C190   N197    1.359   1_554 A
C191   H201    1.083   .     S
C191   C187    1.403   1_554 A
H192   C206    1.083   .     S
H193   C203    1.083   .     S
H194   C204    1.082   .     S
H195   C205    1.082   .     S
N196   C204    1.361   .     A
N196   C205    1.359   1_554 A
N197   Ni186   1.841   1_556 S
N197   C190    1.359   1_556 A
C202   C203    1.404   .     A
C202   C206    1.404   1_554 A
C202   C31     1.476   1_554 S
C203   C204    1.398   .     A
C205   C206    1.396   .     A
C205   N196    1.359   1_556 A
C206   C202    1.404   1_556 A
Ni207  N217    1.839   .     S
Ni207  N218    1.839   .     S
C208   C209    1.405   .     A
C208   C212    1.407   1_556 A
C209   C210    1.394   .     A
C209   H219    1.083   .     S
C210   N218    1.358   .     A
C210   H220    1.082   .     S
C211   C212    1.400   .     A
C211   H221    1.082   .     S
C211   N218    1.360   1_554 A
C212   H222    1.083   .     S
C212   C208    1.407   1_554 A
H213   C227    1.083   .     S
H214   C224    1.083   .     S
H215   C225    1.082   .     S
H216   C226    1.082   .     S
N217   C226    1.359   .     A
N217   C225    1.360   1_556 A
N218   C211    1.360   1_556 A
C223   C227    1.404   .     A
C223   C224    1.404   1_556 A
C224   C225    1.398   .     A
C224   C223    1.404   1_554 A
C225   N217    1.360   1_554 A
C226   C227    1.396   .     A
Ni228  N239    1.841   .     S
Ni228  N238    1.841   1_554 S
C229   C230    1.404   .     A
C229   C233    1.403   1_554 A
C230   C231    1.397   .     A
C230   H240    1.083   .     S
C231   N239    1.359   .     A
C231   H241    1.082   .     S
C232   C233    1.398   .     A
C232   H242    1.082   .     S
C232   N239    1.360   1_556 A
C233   H243    1.083   .     S
C233   C229    1.403   1_556 A
H234   C248    1.083   .     S
H235   C245    1.083   .     S
H236   C246    1.082   .     S
H237   C247    1.082   .     S
N238   C246    1.358   .     A
N238   Ni228   1.841   1_556 S
N238   C247    1.360   1_556 A
N239   C232    1.360   1_554 A
C244   C245    1.406   .     A
C244   C248    1.407   1_556 A
C244   C49     1.483   1_556 S
C245   C246    1.393   .     A
C247   C248    1.401   .     A
C247   N238    1.360   1_554 A
C248   C244    1.407   1_554 A
