data_kag+N139+E1
_audit_creation_date              2025-01-21
_audit_creation_method            'Materials Studio'
_symmetry_space_group_name_H-M    'P1'
_symmetry_Int_Tables_number       1
_symmetry_cell_setting            triclinic
loop_
_symmetry_equiv_pos_as_xyz
  x,y,z
_cell_length_a                    42.8519
_cell_length_b                    35.6024
_cell_length_c                    23.7565
_cell_angle_alpha                 88.6911
_cell_angle_beta                  88.9438
_cell_angle_gamma                 121.5937
loop_
_atom_site_label
_atom_site_type_symbol
_atom_site_fract_x
_atom_site_fract_y
_atom_site_fract_z
_atom_site_U_iso_or_equiv
_atom_site_adp_type
_atom_site_occupancy
C0     C     0.52419   0.50111   0.80101   0.00000  Uiso   1.00
Sm1    Sm    0.47987   0.50215   0.09008   0.00000  Uiso   1.00
Sm2    Sm    0.53085   0.49918   0.91083   0.00000  Uiso   1.00
C3     C     0.50095   0.44304   0.02818   0.00000  Uiso   1.00
C4     C     0.58486   0.48930   0.94231   0.00000  Uiso   1.00
O5     O     0.51483   0.52679   0.16487   0.00000  Uiso   1.00
O6     O     0.45736   0.47667   0.17706   0.00000  Uiso   1.00
O7     O     0.51639   0.55133   0.92263   0.00000  Uiso   1.00
O8     O     0.51573   0.53814   0.01251   0.00000  Uiso   1.00
O9     O     0.42877   0.48140   1.04371   0.00000  Uiso   1.00
O10    O     0.45235   0.54047   0.09165   0.00000  Uiso   1.00
O11    O     0.49720   0.47507   0.83471   0.00000  Uiso   1.00
O12    O     0.55455   0.52622   0.82482   0.00000  Uiso   1.00
O13    O     0.49407   0.44983   0.07802   0.00000  Uiso   1.00
O14    O     0.49427   0.46130   0.98740   0.00000  Uiso   1.00
O15    O     0.58136   0.52098  -0.04115   0.00000  Uiso   1.00
O16    O     0.55983   0.46248   0.90995   0.00000  Uiso   1.00
C17    C     0.48823   0.50164   0.19966   0.00000  Uiso   1.00
C18    C     0.51018   0.55819   0.97275   0.00000  Uiso   1.00
C19    C     0.42655   0.51401   0.06016   0.00000  Uiso   1.00
C20    C     1.01784   0.49606   0.19706   0.00000  Uiso   1.00
Sm21   Sm    0.97750   0.49802   0.90987   0.00000  Uiso   1.00
Sm22   Sm    0.02848   0.49755   0.08749   0.00000  Uiso   1.00
C23    C     0.04940   0.55439   0.97054   0.00000  Uiso   1.00
C24    C     0.09311   0.51002   0.05898   0.00000  Uiso   1.00
O25    O     0.99075   0.47398   0.83272   0.00000  Uiso   1.00
O26    O    -0.02083   0.52613   0.82466   0.00000  Uiso   1.00
O27    O     0.96883   0.44573   0.07581   0.00000  Uiso   1.00
O28    O     0.97940   0.45895   0.98526   0.00000  Uiso   1.00
O29    O     0.94538   0.52000  -0.04100   0.00000  Uiso   1.00
O30    O     0.91670   0.46224   0.90898   0.00000  Uiso   1.00
O31    O     0.01382   0.52165   0.16314   0.00000  Uiso   1.00
O32    O     1.02691   0.47092   0.17357   0.00000  Uiso   1.00
O33    O     0.03757   0.54875   0.92087   0.00000  Uiso   1.00
O34    O     0.02596   0.53481   0.01089   0.00000  Uiso   1.00
O35    O     0.06315   0.47749   1.04151   0.00000  Uiso   1.00
O36    O     0.08917   0.53620   0.09019   0.00000  Uiso   1.00
C37    C    -0.01257   0.50071   0.79990   0.00000  Uiso   1.00
C38    C     0.95643   0.44034   0.02651   0.00000  Uiso   1.00
C39    C     0.91455   0.48884   0.94195   0.00000  Uiso   1.00
C40    C     0.48476  -0.02473   0.19747   0.00000  Uiso   1.00
Sm41   Sm    0.53009   0.03666   0.90737   0.00000  Uiso   1.00
Sm42   Sm    0.47825   0.96920   0.08722   0.00000  Uiso   1.00
C43    C     0.50494   0.94905   0.97148   0.00000  Uiso   1.00
C44    C     0.41927   0.89780   0.05271   0.00000  Uiso   1.00
O45    O     0.49672   0.02352   0.83105   0.00000  Uiso   1.00
O46    O     0.55231   1.03819   0.82135   0.00000  Uiso   1.00
O47    O     0.49988   0.04203   0.07509   0.00000  Uiso   1.00
O48    O     0.49592   0.03129   0.98473   0.00000  Uiso   1.00
O49    O     0.58099   0.07149  -0.04454   0.00000  Uiso   1.00
O50    O     0.56488   0.11014   0.90640   0.00000  Uiso   1.00
O51    O     0.51069   0.98022   0.16418   0.00000  Uiso   1.00
O52    O     0.45541  -0.03325   0.17308   0.00000  Uiso   1.00
O53    O     0.51045   0.96429   0.92088   0.00000  Uiso   1.00
O54    O     0.51320   0.97613   0.01053   0.00000  Uiso   1.00
O55    O     0.42799   0.93693   1.03730   0.00000  Uiso   1.00
O56    O     0.44185   0.89580   0.08553   0.00000  Uiso   1.00
C57    C     0.52258   1.02864   0.79744   0.00000  Uiso   1.00
C58    C     0.50582   0.05799   0.02477   0.00000  Uiso   1.00
C59    C     0.58828   0.10990   0.93914   0.00000  Uiso   1.00
C60    C     0.50065   0.50173   0.37895   0.00000  Uiso   1.00
C61    C     0.53063   0.53046   0.34278   0.00000  Uiso   1.00
C62    C     0.52668   0.53031   0.28446   0.00000  Uiso   1.00
C63    C     0.49267   0.50150   0.26117   0.00000  Uiso   1.00
C64    C     0.46274   0.47270   0.29722   0.00000  Uiso   1.00
C65    C     0.46668   0.47278   0.35547   0.00000  Uiso   1.00
C66    C     0.50470   0.50196   0.44092   0.00000  Uiso   1.00
C67    C     0.48765   0.46216   0.47322   0.00000  Uiso   1.00
C68    C     0.49103   0.46232   0.53160   0.00000  Uiso   1.00
C69    C     0.51148   0.50228   0.55907   0.00000  Uiso   1.00
C70    C     0.52874   0.54208   0.52674   0.00000  Uiso   1.00
C71    C     0.52538   0.54193   0.46832   0.00000  Uiso   1.00
C72    C     0.51464   0.50241   0.62123   0.00000  Uiso   1.00
C73    C     0.54812   0.53146   0.64590   0.00000  Uiso   1.00
C74    C     0.55114   0.53120   0.70436   0.00000  Uiso   1.00
C75    C     0.52074   0.50194   0.73935   0.00000  Uiso   1.00
C76    C     0.48718   0.47319   0.71486   0.00000  Uiso   1.00
C77    C     0.48416   0.47341   0.65640   0.00000  Uiso   1.00
H78    H     0.55726   0.55271   0.35955   0.00000  Uiso   1.00
H79    H     0.55025   0.55278   0.25763   0.00000  Uiso   1.00
H80    H     0.43617   0.45019   0.28043   0.00000  Uiso   1.00
H81    H     0.44297   0.45060   0.38224   0.00000  Uiso   1.00
H82    H     0.47205   0.43081   0.45323   0.00000  Uiso   1.00
H83    H     0.47801   0.43107   0.55519   0.00000  Uiso   1.00
H84    H     0.54431   0.57343   0.54675   0.00000  Uiso   1.00
H85    H     0.53840   0.57317   0.44471   0.00000  Uiso   1.00
H86    H     0.57217   0.55396   0.61995   0.00000  Uiso   1.00
H87    H     0.57736   0.55375   0.72214   0.00000  Uiso   1.00
H88    H     0.46325   0.45047   0.74089   0.00000  Uiso   1.00
H89    H     0.45783   0.45119   0.63873   0.00000  Uiso   1.00
C90    C    -0.00147   0.50207   0.61975   0.00000  Uiso   1.00
C91    C     0.00332   0.47272   0.65370   0.00000  Uiso   1.00
C92    C     0.00022   0.47264   0.71236   0.00000  Uiso   1.00
C93    C    -0.00776   0.50188   0.73813   0.00000  Uiso   1.00
C94    C    -0.01191   0.53174   0.70430   0.00000  Uiso   1.00
C95    C    -0.00880   0.53183   0.64568   0.00000  Uiso   1.00
C96    C     0.00065   0.50117   0.55748   0.00000  Uiso   1.00
C97    C     0.01854   0.54061   0.52442   0.00000  Uiso   1.00
C98    C     0.02059   0.53958   0.46576   0.00000  Uiso   1.00
C99    C     0.00468   0.49909   0.43899   0.00000  Uiso   1.00
C100   C     0.98664   0.45970   0.47207   0.00000  Uiso   1.00
C101   C     0.98462   0.46073   0.53066   0.00000  Uiso   1.00
C102   C     1.00725   0.49786   0.37683   0.00000  Uiso   1.00
C103   C     1.01446   0.46761   0.35199   0.00000  Uiso   1.00
C104   C     1.01734   0.46665   0.29352   0.00000  Uiso   1.00
C105   C     1.01313   0.49597   0.25867   0.00000  Uiso   1.00
C106   C     0.00552   0.52591   0.28330   0.00000  Uiso   1.00
C107   C     0.00268   0.52691   0.34188   0.00000  Uiso   1.00
H108   H     1.00955   0.44987   0.63488   0.00000  Uiso   1.00
H109   H     1.00378   0.44946   0.73748   0.00000  Uiso   1.00
H110   H    -0.01802   0.55469   0.72311   0.00000  Uiso   1.00
H111   H    -0.01297   0.55452   0.62061   0.00000  Uiso   1.00
H112   H     0.03146   0.57228   0.54395   0.00000  Uiso   1.00
H113   H     0.03520   0.57047   0.44139   0.00000  Uiso   1.00
H114   H     0.97367   0.42800   0.45260   0.00000  Uiso   1.00
H115   H     0.96998   0.42982   0.55497   0.00000  Uiso   1.00
H116   H     1.01859   0.44522   0.37781   0.00000  Uiso   1.00
H117   H     1.02329   0.44328   0.27561   0.00000  Uiso   1.00
H118   H     0.00211   0.54882   0.25732   0.00000  Uiso   1.00
H119   H    -0.00332   0.55022   0.35984   0.00000  Uiso   1.00
C120   C     0.49564  -0.01023   0.37688   0.00000  Uiso   1.00
C121   C     0.46279  -0.02057   0.35155   0.00000  Uiso   1.00
C122   C     0.45923  -0.02559   0.29338   0.00000  Uiso   1.00
C123   C     0.48841  -0.02043   0.25916   0.00000  Uiso   1.00
C124   C     0.52117  -0.01041   0.28434   0.00000  Uiso   1.00
C125   C     0.52476  -0.00532   0.34256   0.00000  Uiso   1.00
C126   C     0.49953  -0.00429   0.43874   0.00000  Uiso   1.00
C127   C     0.53254   0.02922   0.46046   0.00000  Uiso   1.00
C128   C     0.53614   0.03494   0.51854   0.00000  Uiso   1.00
C129   C     0.50682   0.00729   0.55640   0.00000  Uiso   1.00
C130   C     0.47378  -0.02615   0.53469   0.00000  Uiso   1.00
C131   C     0.47018  -0.03188   0.47660   0.00000  Uiso   1.00
C132   C     0.51081   1.01307   0.61826   0.00000  Uiso   1.00
C133   C     0.48181   1.00826   0.65282   0.00000  Uiso   1.00
C134   C     0.48563   1.01351   0.71100   0.00000  Uiso   1.00
C135   C     0.51851   1.02362   0.73588   0.00000  Uiso   1.00
C136   C     0.54750   1.02849   0.70144   0.00000  Uiso   1.00
C137   C     0.54368   1.02322   0.64335   0.00000  Uiso   1.00
H138   H     0.44001  -0.02398   0.37656   0.00000  Uiso   1.00
H139   H     0.43368  -0.03318   0.27513   0.00000  Uiso   1.00
H140   H     0.54409  -0.00637   0.25903   0.00000  Uiso   1.00
H141   H     0.55025   0.00207   0.36080   0.00000  Uiso   1.00
H142   H     0.55545   0.05153   0.43245   0.00000  Uiso   1.00
H143   H     0.56176   0.06148   0.53376   0.00000  Uiso   1.00
H144   H     0.45087   0.95153   0.56270   0.00000  Uiso   1.00
H145   H     0.44456  -0.05842   0.46138   0.00000  Uiso   1.00
H146   H     0.45627   1.00091   0.63480   0.00000  Uiso   1.00
H147   H     0.46286   1.00967   0.73650   0.00000  Uiso   1.00
H148   H     0.57312   1.03611   0.71945   0.00000  Uiso   1.00
H149   H     0.56632   0.02640   0.61815   0.00000  Uiso   1.00
C150   C     0.33522   0.52881   1.02804   0.00000  Uiso   1.00
C151   C     0.36694   0.56294   0.05195   0.00000  Uiso   1.00
C152   C     0.39709   0.55868   0.06067   0.00000  Uiso   1.00
C153   C     0.39628   0.52035   1.04528   0.00000  Uiso   1.00
C154   C     0.36547   0.48727   1.01849   0.00000  Uiso   1.00
C155   C     0.33516   0.49141   1.01005   0.00000  Uiso   1.00
C156   C     0.30143   0.53067   1.02616   0.00000  Uiso   1.00
C157   C     0.27849   0.51528   0.97991   0.00000  Uiso   1.00
C158   C     0.24556   0.51470   0.98036   0.00000  Uiso   1.00
C159   C     0.23477   0.52923   1.02725   0.00000  Uiso   1.00
C160   C     0.25806   0.54513   0.07307   0.00000  Uiso   1.00
C161   C     0.29098   0.54601   0.07243   0.00000  Uiso   1.00
C162   C     0.19886   0.52638   1.02986   0.00000  Uiso   1.00
C163   C     0.19535   0.55866   0.05720   0.00000  Uiso   1.00
C164   C     0.16107   0.55376   0.06525   0.00000  Uiso   1.00
C165   C     0.12949   0.51672   1.04563   0.00000  Uiso   1.00
C166   C     0.13299   0.48537   1.01602   0.00000  Uiso   1.00
C167   C     0.16735   0.49007   1.00837   0.00000  Uiso   1.00
H168   H     0.36813   0.59258   0.06509   0.00000  Uiso   1.00
H169   H     0.42069   0.58496   0.08073   0.00000  Uiso   1.00
H170   H     0.36422   0.45747   1.00600   0.00000  Uiso   1.00
H171   H     0.31106   0.46444   0.99182   0.00000  Uiso   1.00
H172   H     0.28602   0.50368   0.94340   0.00000  Uiso   1.00
H173   H     0.22857   0.50289   0.94402   0.00000  Uiso   1.00
H174   H     0.25035   0.55567   0.11043   0.00000  Uiso   1.00
H175   H     0.30767   0.55733   0.10916   0.00000  Uiso   1.00
H176   H     0.21908   0.58753   0.07319   0.00000  Uiso   1.00
H177   H     0.15922   0.57864   0.08784   0.00000  Uiso   1.00
H178   H     0.10906   0.45655   1.00031   0.00000  Uiso   1.00
H179   H     0.16895   0.46435   0.98760   0.00000  Uiso   1.00
C180   C     0.84022   0.36033   0.00703   0.00000  Uiso   1.00
C181   C     0.86467   0.35997   0.96703   0.00000  Uiso   1.00
C182   C     0.90251   0.38631   0.97313   0.00000  Uiso   1.00
C183   C     0.91661   0.41392   0.01888   0.00000  Uiso   1.00
C184   C     0.89232   0.41422   0.05909   0.00000  Uiso   1.00
C185   C     0.85445   0.38784   0.05306   0.00000  Uiso   1.00
C186   C     0.80011   0.33040   0.00190   0.00000  Uiso   1.00
C187   C     0.77794   0.30582   0.04918   0.00000  Uiso   1.00
C188   C     0.74107   0.27347   0.04319   0.00000  Uiso   1.00
C189   C     0.72558   0.26540  -0.01008   0.00000  Uiso   1.00
C190   C     0.74717   0.29175   0.94321   0.00000  Uiso   1.00
C191   C     0.78412   0.32381   0.94909   0.00000  Uiso   1.00
C192   C     0.68839   0.22679  -0.01810   0.00000  Uiso   1.00
C193   C     0.66382   0.22991   0.94660   0.00000  Uiso   1.00
C194   C     0.63050   0.19208   0.93415   0.00000  Uiso   1.00
C195   C     0.62147   0.15053  -0.04367   0.00000  Uiso   1.00
C196   C     0.64540   0.14772  -0.00670   0.00000  Uiso   1.00
C197   C     0.67848   0.18546   0.00605   0.00000  Uiso   1.00
H198   H     0.85450   0.33853   0.93168   0.00000  Uiso   1.00
H199   H     0.92080   0.38500   0.94226   0.00000  Uiso   1.00
H200   H     0.90266   0.43506   0.09501   0.00000  Uiso   1.00
H201   H     0.83627   0.38896   0.08433   0.00000  Uiso   1.00
H202   H     0.78950   0.31012   0.09038   0.00000  Uiso   1.00
H203   H     0.72489   0.25386   0.07995   0.00000  Uiso   1.00
H204   H     0.73597   0.28605   0.90160   0.00000  Uiso   1.00
H205   H     0.80044   0.34269   0.91207   0.00000  Uiso   1.00
H206   H     0.67071   0.26148   0.92791   0.00000  Uiso   1.00
H207   H     0.61237   0.19515   0.90587   0.00000  Uiso   1.00
H208   H     0.63907   0.11612   0.01117   0.00000  Uiso   1.00
H209   H     0.69709   0.18198   0.03275   0.00000  Uiso   1.00
C210   C     0.81204   0.47836  -0.01784   0.00000  Uiso   1.00
C211   C     0.84454   0.51112   0.00600   0.00000  Uiso   1.00
C212   C     0.87780   0.51391  -0.00581   0.00000  Uiso   1.00
C213   C     0.87919   0.48405  -0.04179   0.00000  Uiso   1.00
C214   C     0.84656   0.45035  -0.06396   0.00000  Uiso   1.00
C215   C     0.81331   0.44742  -0.05199   0.00000  Uiso   1.00
C216   C     0.77754   0.47838  -0.01082   0.00000  Uiso   1.00
C217   C     0.74346   0.43859  -0.00453   0.00000  Uiso   1.00
C218   C     0.71086   0.43869  -0.00414   0.00000  Uiso   1.00
C219   C     0.71163   0.47855  -0.01020   0.00000  Uiso   1.00
C220   C     0.74576   0.51842  -0.01411   0.00000  Uiso   1.00
C221   C     0.77831   0.51832  -0.01444   0.00000  Uiso   1.00
C222   C     0.67725   0.47862  -0.01708   0.00000  Uiso   1.00
C223   C     0.67316   0.51198   0.00572   0.00000  Uiso   1.00
C224   C     0.64264   0.51482  -0.00632   0.00000  Uiso   1.00
C225   C     0.61559   0.48433  -0.04130   0.00000  Uiso   1.00
C226   C     0.61887   0.44999  -0.06228   0.00000  Uiso   1.00
C227   C     0.64938   0.44716  -0.05032   0.00000  Uiso   1.00
H228   H     0.84430   0.53497   0.03320   0.00000  Uiso   1.00
H229   H     0.90252   0.53999   0.01226   0.00000  Uiso   1.00
H230   H     0.84686   0.42682  -0.09170   0.00000  Uiso   1.00
H231   H     0.78887   0.42202  -0.07141   0.00000  Uiso   1.00
H232   H     0.74200   0.40733  -0.00078   0.00000  Uiso   1.00
H233   H     0.68500   0.40749  -0.00002   0.00000  Uiso   1.00
H234   H     0.74738   0.54967  -0.01965   0.00000  Uiso   1.00
H235   H     0.80406   0.54949  -0.02023   0.00000  Uiso   1.00
H236   H     0.69385   0.53631   0.03219   0.00000  Uiso   1.00
H237   H     0.64062   0.54146   0.01075   0.00000  Uiso   1.00
H238   H     0.59835   0.42596  -0.08923   0.00000  Uiso   1.00
H239   H     0.65186   0.42139  -0.06912   0.00000  Uiso   1.00
C240   C     0.31523   0.78551   1.01284   0.00000  Uiso   1.00
C241   C     0.33967   0.77975   1.04517   0.00000  Uiso   1.00
C242   C     0.37432   0.81598   0.05645   0.00000  Uiso   1.00
C243   C     0.38502   0.85843   1.03539   0.00000  Uiso   1.00
C244   C     0.36139   0.86361   1.00038   0.00000  Uiso   1.00
C245   C     0.32689   0.82757   0.98926   0.00000  Uiso   1.00
C246   C     0.27673   0.74893   1.00731   0.00000  Uiso   1.00
C247   C     0.24820   0.75693   1.01540   0.00000  Uiso   1.00
C248   C     0.21176   0.72301   1.01139   0.00000  Uiso   1.00
C249   C     0.20287   0.68022   0.99887   0.00000  Uiso   1.00
C250   C     0.23134   0.67206   0.99039   0.00000  Uiso   1.00
C251   C     0.26800   0.70608   0.99509   0.00000  Uiso   1.00
C252   C     0.16388   0.64490   0.99403   0.00000  Uiso   1.00
C253   C     0.13732   0.64145   1.03294   0.00000  Uiso   1.00
C254   C     0.10016   0.61122   0.02580   0.00000  Uiso   1.00
C255   C     0.08880   0.58334   0.98011   0.00000  Uiso   1.00
C256   C     0.11524   0.58614   0.94152   0.00000  Uiso   1.00
C257   C     0.15255   0.61641   0.94872   0.00000  Uiso   1.00
H258   H     0.33130   0.74769   0.06395   0.00000  Uiso   1.00
H259   H     0.39212   0.81106   0.08333   0.00000  Uiso   1.00
H260   H     0.36906   0.89585   0.98306   0.00000  Uiso   1.00
H261   H     0.30887   0.83279   0.96333   0.00000  Uiso   1.00
H262   H     0.25406   0.78945   1.02562   0.00000  Uiso   1.00
H263   H     0.19046   0.73042   1.01743   0.00000  Uiso   1.00
H264   H     0.22522   0.63934  -0.01928   0.00000  Uiso   1.00
H265   H     0.28950   0.69908  -0.01144   0.00000  Uiso   1.00
H266   H     0.14529   0.66261   0.06860   0.00000  Uiso   1.00
H267   H     0.08018   0.61011   0.05549   0.00000  Uiso   1.00
H268   H     0.10697   0.56531   0.90550   0.00000  Uiso   1.00
H269   H     0.17241   0.61871   0.91778   0.00000  Uiso   1.00
C270   C     0.47807   0.81601   0.99955   0.00000  Uiso   1.00
C271   C     0.49398   0.84679   0.04197   0.00000  Uiso   1.00
C272   C     0.50086   0.88945   0.03397   0.00000  Uiso   1.00
C273   C     0.49149   0.90207   0.98372   0.00000  Uiso   1.00
C274   C     0.47371   0.87064   0.94256   0.00000  Uiso   1.00
C275   C     0.46690   0.82788   0.95050   0.00000  Uiso   1.00
C276   C     0.47736   0.77394   1.00361   0.00000  Uiso   1.00
C277   C     0.44720   0.73421   0.98605   0.00000  Uiso   1.00
C278   C     0.44843   0.69563   0.98602   0.00000  Uiso   1.00
C279   C     0.47995   0.69626   1.00315   0.00000  Uiso   1.00
C280   C     0.50973   0.73590   0.02158   0.00000  Uiso   1.00
C281   C     0.50843   0.77417   0.02188   0.00000  Uiso   1.00
C282   C     0.48325   0.65692   0.99871   0.00000  Uiso   1.00
C283   C     0.50201   0.64781   0.03948   0.00000  Uiso   1.00
C284   C     0.50983   0.61483   0.03158   0.00000  Uiso   1.00
C285   C     0.49819   0.58940   0.98355   0.00000  Uiso   1.00
C286   C     0.47828   0.59725   0.94367   0.00000  Uiso   1.00
C287   C     0.47075   0.63062   0.95128   0.00000  Uiso   1.00
H288   H     0.50247   0.83836   0.08047   0.00000  Uiso   1.00
H289   H     0.51493   0.91316   0.06614   0.00000  Uiso   1.00
H290   H     0.46647   0.87969   0.90327   0.00000  Uiso   1.00
H291   H     0.45494   0.80501   0.91685   0.00000  Uiso   1.00
H292   H     0.42285   0.73311   0.97202   0.00000  Uiso   1.00
H293   H     0.42490   0.66545   0.97219   0.00000  Uiso   1.00
H294   H     0.53476   0.73787   0.03370   0.00000  Uiso   1.00
H295   H     0.53245   0.80448   0.03431   0.00000  Uiso   1.00
H296   H     0.51144   0.66693   0.07696   0.00000  Uiso   1.00
H297   H     0.52555   0.60966   0.06262   0.00000  Uiso   1.00
H298   H     0.46934   0.57830   0.90598   0.00000  Uiso   1.00
H299   H     0.45664   0.63716   0.91877   0.00000  Uiso   1.00
C300   C     0.53921   0.35405   0.00876   0.00000  Uiso   1.00
C301   C     0.55184   0.38410   0.05242   0.00000  Uiso   1.00
C302   C     0.54014   0.41390   0.05789   0.00000  Uiso   1.00
C303   C     0.51614   0.41478   0.01922   0.00000  Uiso   1.00
C304   C     0.50445   0.38587   0.97452   0.00000  Uiso   1.00
C305   C     0.51598   0.35590   0.96918   0.00000  Uiso   1.00
C306   C     0.54686   0.31788   0.00787   0.00000  Uiso   1.00
C307   C     0.55285   0.30309   0.95674   0.00000  Uiso   1.00
C308   C     0.55425   0.26469   0.95582   0.00000  Uiso   1.00
C309   C     0.54966   0.24032   0.00600   0.00000  Uiso   1.00
C310   C     0.54593   0.25668   0.05733   0.00000  Uiso   1.00
C311   C     0.54455   0.29496   0.05826   0.00000  Uiso   1.00
C312   C     0.54427   0.19556   0.00488   0.00000  Uiso   1.00
C313   C     0.55759   0.18043   0.04789   0.00000  Uiso   1.00
C314   C     0.54654   0.13589   0.05281   0.00000  Uiso   1.00
C315   C     0.52245   0.10582   0.01431   0.00000  Uiso   1.00
C316   C     0.51088   0.12131   0.96939   0.00000  Uiso   1.00
C317   C     0.52173   0.16577   0.96463   0.00000  Uiso   1.00
H318   H     0.57015   0.38389   0.08307   0.00000  Uiso   1.00
H319   H     0.54953   0.43595   0.09270   0.00000  Uiso   1.00
H320   H     0.48555   0.38564   0.94467   0.00000  Uiso   1.00
H321   H     0.50530   0.33278   0.93560   0.00000  Uiso   1.00
H322   H     0.55540   0.32054   0.91733   0.00000  Uiso   1.00
H323   H     0.55776   0.25328   0.91570   0.00000  Uiso   1.00
H324   H     0.54173   0.23840   0.09666   0.00000  Uiso   1.00
H325   H     0.53942   0.30506   0.09828   0.00000  Uiso   1.00
H326   H     0.57543   0.20271   0.07902   0.00000  Uiso   1.00
H327   H     0.55594   0.12466   0.08766   0.00000  Uiso   1.00
H328   H     0.49193   0.09860   0.93960   0.00000  Uiso   1.00
H329   H     0.51055   0.17616   0.93151   0.00000  Uiso   1.00
loop_
_geom_bond_atom_site_label_1
_geom_bond_atom_site_label_2
_geom_bond_distance
_geom_bond_site_symmetry_2
_ccdc_geom_bond_type
C0     O11     1.283   .     A
C0     O12     1.282   .     A
C0     C75     1.476   .     S
Sm1    O5      2.228   .     S
Sm1    O6      2.224   .     S
Sm1    O8      2.264   .     S
Sm1    O10     2.223   .     S
Sm1    O13     2.264   .     S
Sm1    O9      2.233   1_554 S
Sm2    O7      2.266   .     S
Sm2    O11     2.226   .     S
Sm2    O12     2.223   .     S
Sm2    O14     2.270   .     S
Sm2    O16     2.225   .     S
Sm2    O15     2.227   1_556 S
C3     O13     1.274   .     A
C3     C303    1.474   .     S
C3     O14     1.273   1_554 A
C4     O16     1.282   .     A
C4     O15     1.282   1_556 A
C4     C225    1.475   1_556 S
O5     C17     1.283   .     A
O6     C17     1.282   .     A
O7     C18     1.272   .     A
O8     C18     1.270   1_554 A
O9     Sm1     2.233   1_556 S
O9     C19     1.283   1_556 A
O10    C19     1.281   .     A
O14    C3      1.273   1_556 A
O15    Sm2     2.227   1_554 S
O15    C4      1.282   1_554 A
C17    C63     1.477   .     S
C18    C285    1.473   .     S
C18    O8      1.270   1_556 A
C19    O9      1.283   1_554 A
C19    C153    1.476   1_554 S
C20    O32     1.282   .     A
C20    C105    1.474   .     S
C20    O31     1.283   1_655 A
Sm21   O25     2.226   .     S
Sm21   O28     2.271   .     S
Sm21   O30     2.222   .     S
Sm21   O26     2.221   1_655 S
Sm21   O29     2.232   1_556 S
Sm21   O33     2.265   1_655 S
Sm22   O31     2.226   .     S
Sm22   O34     2.265   .     S
Sm22   O36     2.218   .     S
Sm22   O27     2.263   1_455 S
Sm22   O32     2.219   1_455 S
Sm22   O35     2.235   1_554 S
C23    O33     1.271   .     A
C23    C255    1.472   .     S
C23    O34     1.270   1_556 A
C24    O36     1.280   .     A
C24    O35     1.283   1_554 A
C24    C165    1.475   1_554 S
O25    C37     1.283   1_655 A
O26    C37     1.282   .     A
O26    Sm21    2.221   1_455 S
O27    C38     1.272   .     A
O27    Sm22    2.263   1_655 S
O28    C38     1.273   1_556 A
O29    Sm21    2.232   1_554 S
O29    C39     1.283   1_554 A
O30    C39     1.281   .     A
O31    C20     1.283   1_455 A
O32    Sm22    2.219   1_655 S
O33    Sm21    2.265   1_455 S
O34    C23     1.270   1_554 A
O35    Sm22    2.235   1_556 S
O35    C24     1.283   1_556 A
C37    C93     1.475   .     S
C37    O25     1.283   1_455 A
C38    C183    1.472   .     S
C38    O28     1.273   1_554 A
C39    O29     1.283   1_556 A
C39    C213    1.476   1_556 S
C40    O52     1.282   .     A
C40    C123    1.480   .     S
C40    O51     1.284   1_545 A
Sm41   O45     2.233   .     S
Sm41   O48     2.269   .     S
Sm41   O50     2.231   .     S
Sm41   O46     2.226   1_545 S
Sm41   O49     2.219   1_556 S
Sm41   O53     2.265   1_545 S
Sm42   O51     2.233   .     S
Sm42   O54     2.262   .     S
Sm42   O56     2.236   .     S
Sm42   O47     2.259   1_565 S
Sm42   O52     2.226   1_565 S
Sm42   O55     2.220   1_554 S
C43    O53     1.273   .     A
C43    C273    1.475   .     S
C43    O54     1.269   1_556 A
C44    O56     1.283   .     A
C44    O55     1.281   1_554 A
C44    C243    1.477   1_554 S
O45    C57     1.284   1_545 A
O46    C57     1.282   .     A
O46    Sm41    2.226   1_565 S
O47    C58     1.274   .     A
O47    Sm42    2.259   1_545 S
O48    C58     1.273   1_556 A
O49    Sm41    2.219   1_554 S
O49    C59     1.281   1_554 A
O50    C59     1.284   .     A
O51    C40     1.284   1_565 A
O52    Sm42    2.226   1_545 S
O53    Sm41    2.265   1_565 S
O54    C43     1.269   1_554 A
O55    Sm42    2.220   1_556 S
O55    C44     1.281   1_556 A
C57    C135    1.480   .     S
C57    O45     1.284   1_565 A
C58    C315    1.474   .     S
C58    O48     1.273   1_554 A
C59    O49     1.281   1_556 A
C59    C195    1.475   1_556 S
C60    C61     1.406   .     A
C60    C65     1.406   .     A
C60    C66     1.485   .     S
C61    C62     1.399   .     A
C61    H78     1.083   .     S
C62    C63     1.404   .     A
C62    H79     1.083   .     S
C63    C64     1.404   .     A
C64    C65     1.397   .     A
C64    H80     1.083   .     S
C65    H81     1.083   .     S
C66    C67     1.405   .     A
C66    C71     1.406   .     A
C67    C68     1.397   .     A
C67    H82     1.083   .     S
C68    C69     1.406   .     A
C68    H83     1.083   .     S
C69    C70     1.406   .     A
C69    C72     1.485   .     S
C70    C71     1.398   .     A
C70    H84     1.083   .     S
C71    H85     1.083   .     S
C72    C73     1.406   .     A
C72    C77     1.406   .     A
C73    C74     1.397   .     A
C73    H86     1.083   .     S
C74    C75     1.404   .     A
C74    H87     1.083   .     S
C75    C76     1.404   .     A
C76    C77     1.398   .     A
C76    H88     1.083   .     S
C77    H89     1.083   .     S
C90    C91     1.406   .     A
C90    C95     1.405   .     A
C90    C96     1.482   .     S
C91    C92     1.397   .     A
C91    H108    1.083   1_455 S
C92    C93     1.404   .     A
C92    H109    1.083   1_455 S
C93    C94     1.404   .     A
C94    C95     1.396   .     A
C94    H110    1.083   .     S
C95    H111    1.083   .     S
C96    C97     1.406   .     A
C96    C101    1.405   1_455 A
C97    C98     1.397   .     A
C97    H112    1.083   .     S
C98    C99     1.405   .     A
C98    H113    1.083   .     S
C99    C100    1.405   1_455 A
C99    C102    1.482   1_455 S
C100   C101    1.395   .     A
C100   H114    1.083   .     S
C100   C99     1.405   1_655 A
C101   H115    1.083   .     S
C101   C96     1.405   1_655 A
C102   C103    1.405   .     A
C102   C99     1.482   1_655 S
C102   C107    1.406   1_655 A
C103   C104    1.395   .     A
C103   H116    1.083   .     S
C104   C105    1.404   .     A
C104   H117    1.083   .     S
C105   C106    1.404   1_655 A
C106   C107    1.398   .     A
C106   H118    1.083   .     S
C106   C105    1.404   1_455 A
C107   H119    1.083   .     S
C107   C102    1.406   1_455 A
H108   C91     1.083   1_655 S
H109   C92     1.083   1_655 S
C120   C121    1.406   .     A
C120   C125    1.407   .     A
C120   C126    1.489   .     S
C121   C122    1.398   .     A
C121   H138    1.082   .     S
C122   C123    1.405   .     A
C122   H139    1.083   .     S
C123   C124    1.404   .     A
C124   C125    1.400   .     A
C124   H140    1.083   .     S
C125   H141    1.082   .     S
C126   C127    1.406   .     A
C126   C131    1.407   .     A
C127   C128    1.399   .     A
C127   H142    1.083   .     S
C128   C129    1.407   .     A
C128   H143    1.083   .     S
C129   C130    1.406   .     A
C129   C132    1.489   1_545 S
C130   C131    1.399   .     A
C130   H144    1.083   1_545 S
C131   H145    1.083   .     S
C132   C133    1.407   .     A
C132   C137    1.406   .     A
C132   C129    1.489   1_565 S
C133   C134    1.400   .     A
C133   H146    1.083   .     S
C134   C135    1.404   .     A
C134   H147    1.083   .     S
C135   C136    1.405   .     A
C136   C137    1.398   .     A
C136   H148    1.083   .     S
C137   H149    1.083   1_565 S
H144   C130    1.083   1_565 S
H149   C137    1.083   1_545 S
C150   C155    1.406   .     A
C150   C156    1.485   .     S
C150   C151    1.406   1_556 A
C151   C152    1.396   .     A
C151   H168    1.083   .     S
C151   C150    1.406   1_554 A
C152   H169    1.083   .     S
C152   C153    1.404   1_554 A
C153   C154    1.404   .     A
C153   C152    1.404   1_556 A
C153   C19     1.476   1_556 S
C154   C155    1.399   .     A
C154   H170    1.083   .     S
C155   H171    1.083   .     S
C156   C157    1.406   .     A
C156   C161    1.405   1_556 A
C157   C158    1.400   .     A
C157   H172    1.083   .     S
C158   C159    1.407   .     A
C158   H173    1.082   .     S
C159   C162    1.488   .     S
C159   C160    1.406   1_556 A
C160   C161    1.394   .     A
C160   H174    1.082   .     S
C160   C159    1.406   1_554 A
C161   H175    1.083   .     S
C161   C156    1.405   1_554 A
C162   C167    1.408   .     A
C162   C163    1.406   1_556 A
C163   C164    1.395   .     A
C163   H176    1.082   .     S
C163   C162    1.406   1_554 A
C164   H177    1.083   .     S
C164   C165    1.403   1_554 A
C165   C166    1.404   .     A
C165   C164    1.403   1_556 A
C165   C24     1.475   1_556 S
C166   C167    1.400   .     A
C166   H178    1.083   .     S
C167   H179    1.082   .     S
C180   C185    1.405   .     A
C180   C186    1.483   .     S
C180   C181    1.406   1_554 A
C181   C182    1.397   .     A
C181   H198    1.083   .     S
C181   C180    1.406   1_556 A
C182   H199    1.083   .     S
C182   C183    1.401   1_556 A
C183   C184    1.404   .     A
C183   C182    1.401   1_554 A
C184   C185    1.398   .     A
C184   H200    1.083   .     S
C185   H201    1.083   .     S
C186   C187    1.405   .     A
C186   C191    1.405   1_554 A
C187   C188    1.397   .     A
C187   H202    1.083   .     S
C188   C189    1.405   .     A
C188   H203    1.083   .     S
C189   C192    1.481   .     S
C189   C190    1.405   1_554 A
C190   C191    1.397   .     A
C190   H204    1.083   .     S
C190   C189    1.405   1_556 A
C191   H205    1.083   .     S
C191   C186    1.405   1_556 A
C192   C197    1.404   .     A
C192   C193    1.405   1_554 A
C193   C194    1.400   .     A
C193   H206    1.083   .     S
C193   C192    1.405   1_556 A
C194   H207    1.083   .     S
C194   C195    1.405   1_556 A
C195   C196    1.403   .     A
C195   C194    1.405   1_554 A
C195   C59     1.475   1_554 S
C196   C197    1.395   .     A
C196   H208    1.083   .     S
C197   H209    1.083   .     S
C210   C211    1.406   .     A
C210   C215    1.406   .     A
C210   C216    1.485   .     S
C211   C212    1.398   .     A
C211   H228    1.083   .     S
C212   C213    1.404   .     A
C212   H229    1.083   .     S
C213   C214    1.404   .     A
C213   C39     1.476   1_554 S
C214   C215    1.396   .     A
C214   H230    1.083   .     S
C215   H231    1.083   .     S
C216   C217    1.406   .     A
C216   C221    1.405   .     A
C217   C218    1.399   .     A
C217   H232    1.083   .     S
C218   C219    1.406   .     A
C218   H233    1.083   .     S
C219   C220    1.406   .     A
C219   C222    1.486   .     S
C220   C221    1.396   .     A
C220   H234    1.083   .     S
C221   H235    1.083   .     S
C222   C223    1.407   .     A
C222   C227    1.406   .     A
C223   C224    1.398   .     A
C223   H236    1.083   .     S
C224   C225    1.404   .     A
C224   H237    1.083   .     S
C225   C226    1.403   .     A
C225   C4      1.475   1_554 S
C226   C227    1.397   .     A
C226   H238    1.083   .     S
C227   H239    1.082   .     S
C240   C241    1.406   .     A
C240   C245    1.405   .     A
C240   C246    1.483   .     S
C241   C242    1.401   1_556 A
C241   H258    1.083   1_556 S
C242   H259    1.083   .     S
C242   C241    1.401   1_554 A
C242   C243    1.406   1_554 A
C243   C244    1.404   .     A
C243   C242    1.406   1_556 A
C243   C44     1.477   1_556 S
C244   C245    1.394   .     A
C244   H260    1.083   .     S
C245   H261    1.083   .     S
C246   C247    1.404   .     A
C246   C251    1.406   .     A
C247   C248    1.393   .     A
C247   H262    1.083   .     S
C248   C249    1.404   .     A
C248   H263    1.083   .     S
C249   C250    1.407   .     A
C249   C252    1.483   .     S
C250   C251    1.402   .     A
C250   H264    1.083   1_556 S
C251   H265    1.083   1_556 S
C252   C253    1.405   .     A
C252   C257    1.406   .     A
C253   C254    1.395   1_556 A
C253   H266    1.083   1_556 S
C254   H267    1.083   .     S
C254   C253    1.395   1_554 A
C254   C255    1.401   1_554 A
C255   C256    1.404   .     A
C255   C254    1.401   1_556 A
C256   C257    1.400   .     A
C256   H268    1.083   .     S
C257   H269    1.083   .     S
H258   C241    1.083   1_554 S
H264   C250    1.083   1_554 S
H265   C251    1.083   1_554 S
H266   C253    1.083   1_554 S
C270   C275    1.406   .     A
C270   C276    1.483   .     S
C270   C271    1.405   1_556 A
C271   C272    1.395   .     A
C271   H288    1.083   .     S
C271   C270    1.405   1_554 A
C272   H289    1.083   .     S
C272   C273    1.403   1_554 A
C273   C274    1.404   .     A
C273   C272    1.403   1_556 A
C274   C275    1.399   .     A
C274   H290    1.083   .     S
C275   H291    1.083   .     S
C276   C277    1.406   .     A
C276   C281    1.404   1_556 A
C277   C278    1.402   .     A
C277   H292    1.083   .     S
C278   C279    1.407   .     A
C278   H293    1.083   .     S
C279   C282    1.485   .     S
C279   C280    1.405   1_556 A
C280   C281    1.393   .     A
C280   H294    1.083   .     S
C280   C279    1.405   1_554 A
C281   H295    1.083   .     S
C281   C276    1.404   1_554 A
C282   C287    1.407   .     A
C282   C283    1.406   1_556 A
C283   C284    1.395   .     A
C283   H296    1.083   .     S
C283   C282    1.406   1_554 A
C284   H297    1.083   .     S
C284   C285    1.402   1_554 A
C285   C286    1.404   .     A
C285   C284    1.402   1_556 A
C286   C287    1.399   .     A
C286   H298    1.083   .     S
C287   H299    1.083   .     S
C300   C301    1.406   .     A
C300   C306    1.486   .     S
C300   C305    1.407   1_554 A
C301   C302    1.398   .     A
C301   H318    1.083   .     S
C302   C303    1.404   .     A
C302   H319    1.083   .     S
C303   C304    1.403   1_554 A
C304   C305    1.398   .     A
C304   H320    1.083   .     S
C304   C303    1.403   1_556 A
C305   H321    1.083   .     S
C305   C300    1.407   1_556 A
C306   C311    1.405   .     A
C306   C307    1.406   1_554 A
C307   C308    1.400   .     A
C307   H322    1.083   .     S
C307   C306    1.406   1_556 A
C308   H323    1.083   .     S
C308   C309    1.406   1_556 A
C309   C310    1.405   .     A
C309   C312    1.487   .     S
C309   C308    1.406   1_554 A
C310   C311    1.396   .     A
C310   H324    1.083   .     S
C311   H325    1.083   .     S
C312   C313    1.407   .     A
C312   C317    1.407   1_554 A
C313   C314    1.398   .     A
C313   H326    1.083   .     S
C314   C315    1.404   .     A
C314   H327    1.083   .     S
C315   C316    1.403   1_554 A
C316   C317    1.397   .     A
C316   H328    1.083   .     S
C316   C315    1.403   1_556 A
C317   H329    1.083   .     S
C317   C312    1.407   1_556 A
