data_kag+N144+E183
_audit_creation_date              2025-01-21
_audit_creation_method            'Materials Studio'
_symmetry_space_group_name_H-M    'P1'
_symmetry_Int_Tables_number       1
_symmetry_cell_setting            triclinic
loop_
_symmetry_equiv_pos_as_xyz
  x,y,z
_cell_length_a                    27.5526
_cell_length_b                    28.4601
_cell_length_c                    13.2557
_cell_angle_alpha                 91.7842
_cell_angle_beta                  87.7778
_cell_angle_gamma                 121.2820
loop_
_atom_site_label
_atom_site_type_symbol
_atom_site_fract_x
_atom_site_fract_y
_atom_site_fract_z
_atom_site_U_iso_or_equiv
_atom_site_adp_type
_atom_site_occupancy
C0     C     0.68247   0.65321   1.04763   0.00000  Uiso   1.00
Er1    Er    0.46211   0.54522  -0.01829   0.00000  Uiso   1.00
Er2    Er    0.55874   0.59094  -0.02351   0.00000  Uiso   1.00
C3     C     0.52157   0.67273  -0.01968   0.00000  Uiso   1.00
O4     O     0.55480   0.58731   0.81288   0.00000  Uiso   1.00
C5     C     0.51220   0.56894   0.19084   0.00000  Uiso   1.00
C6     C     0.50682   0.46769  -0.02999   0.00000  Uiso   1.00
C7     C     0.36785   0.54696   1.00371   0.00000  Uiso   1.00
O8     O     0.67013   0.67998   1.10473   0.00000  Uiso   1.00
O9     O     0.65225   0.62970   0.96021   0.00000  Uiso   1.00
O10    O     0.55384   0.51260  -0.02301   0.00000  Uiso   1.00
O11    O     0.46097   0.46809  -0.02819   0.00000  Uiso   1.00
O12    O     0.55901   0.59266   0.14053   0.00000  Uiso   1.00
O13    O     0.46537   0.54512   0.14510   0.00000  Uiso   1.00
C14    C     0.50806   0.56703   0.76747   0.00000  Uiso   1.00
O15    O     0.46141   0.54671   0.81811   0.00000  Uiso   1.00
O16    O     0.56634   0.67049  -0.02449   0.00000  Uiso   1.00
O17    O     0.47297   0.62810  -0.01263   0.00000  Uiso   1.00
O18    O     0.36901   0.50327   0.99382   0.00000  Uiso   1.00
O19    O     0.41723   0.58975   0.99758   0.00000  Uiso   1.00
C20    C     0.92323   0.42449   1.04704   0.00000  Uiso   1.00
Er21   Er    0.05052   0.63706   0.12743   0.00000  Uiso   1.00
Er22   Er    0.98859   0.54522   0.12368   0.00000  Uiso   1.00
C23    C     0.10859   0.57048   0.12018   0.00000  Uiso   1.00
O24    O    -0.01133   0.54491   0.96045   0.00000  Uiso   1.00
C25    C     0.01475   0.58853   0.33737   0.00000  Uiso   1.00
C26    C     0.93092   0.61238   0.12279   0.00000  Uiso   1.00
C27    C     0.12575   0.73049   1.04306   0.00000  Uiso   1.00
O28    O     0.96753   0.43704   1.00167   0.00000  Uiso   1.00
O29    O     0.92232   0.45662   1.12748   0.00000  Uiso   1.00
O30    O     0.92117   0.56355   0.12649   0.00000  Uiso   1.00
O31    O     0.98176   0.65308   0.12300   0.00000  Uiso   1.00
O32    O     0.98730   0.54403   0.28743   0.00000  Uiso   1.00
O33    O     0.04321   0.63358   0.29095   0.00000  Uiso   1.00
C34    C     0.02039   0.58895   0.91256   0.00000  Uiso   1.00
O35    O     0.05230   0.63370   0.96116   0.00000  Uiso   1.00
O36    O     0.05790   0.52962   0.11717   0.00000  Uiso   1.00
O37    O     0.11767   0.61895   0.13043   0.00000  Uiso   1.00
O38    O     0.09469   0.68661   0.99290   0.00000  Uiso   1.00
O39    O     0.11339   0.72484   1.13608   0.00000  Uiso   1.00
C40    C     0.50870   0.20210   0.89131   0.00000  Uiso   1.00
Er41   Er    0.54667   0.04442  -0.06319   0.00000  Uiso   1.00
Er42   Er    0.50904   0.09929  -0.05556   0.00000  Uiso   1.00
C43    C     0.41554   0.98079  -0.05842   0.00000  Uiso   1.00
O44    O     0.51081   0.09794   0.78002   0.00000  Uiso   1.00
C45    C     0.52639   0.07136   0.15250   0.00000  Uiso   1.00
C46    C     0.63719   0.16616  -0.05478   0.00000  Uiso   1.00
C47    C     0.53772   0.94767   0.93738   0.00000  Uiso   1.00
O48    O     0.54123   0.20178   0.82690   0.00000  Uiso   1.00
O49    O     0.47508   0.15550   0.94955   0.00000  Uiso   1.00
O50    O     0.59382   0.17055  -0.05133   0.00000  Uiso   1.00
O51    O     0.63110   0.11887  -0.06330   0.00000  Uiso   1.00
O52    O     0.50794   0.09779   0.10803   0.00000  Uiso   1.00
O53    O     0.54507   0.04527   0.10095   0.00000  Uiso   1.00
C54    C     0.52897   0.07136   0.72863   0.00000  Uiso   1.00
O55    O     0.54712   0.04473   0.77326   0.00000  Uiso   1.00
O56    O     0.42377   0.02894  -0.05506   0.00000  Uiso   1.00
O57    O     0.45804   0.97389  -0.06341   0.00000  Uiso   1.00
O58    O     0.58413   0.99302   0.93448   0.00000  Uiso   1.00
O59    O     0.49518   0.95386   0.93752   0.00000  Uiso   1.00
C60    C     0.51169   0.56882   0.30184   0.00000  Uiso   1.00
C61    C     0.48133   0.55457   0.47986   0.00000  Uiso   1.00
C62    C     0.53892   0.58169   0.47841   0.00000  Uiso   1.00
S63    S     0.44599   0.53805   0.59299   0.00000  Uiso   1.00
S64    S     0.57224   0.59726   0.58987   0.00000  Uiso   1.00
S65    S     0.44800   0.53869   0.36839   0.00000  Uiso   1.00
S66    S     0.57428   0.59837   0.36529   0.00000  Uiso   1.00
C67    C     0.50856   0.56733   0.65646   0.00000  Uiso   1.00
C68    C     0.01995   0.58861   0.80175   0.00000  Uiso   1.00
C69    C     0.99920   0.56070   0.62485   0.00000  Uiso   1.00
C70    C     0.03524   0.61602   0.62520   0.00000  Uiso   1.00
S71    S     0.97620   0.52763   0.51253   0.00000  Uiso   1.00
S72    S     0.05483   0.64895   0.51356   0.00000  Uiso   1.00
S73    S     0.97943   0.52787   0.73676   0.00000  Uiso   1.00
S74    S     0.05855   0.64913   0.73724   0.00000  Uiso   1.00
C75    C     0.01462   0.58829   0.44825   0.00000  Uiso   1.00
C76    C     0.52647   0.07107   0.26344   0.00000  Uiso   1.00
C77    C     0.53867   0.05480   0.43817   0.00000  Uiso   1.00
C78    C     0.51637   0.08758   0.44298   0.00000  Uiso   1.00
S79    S     0.55271   0.03539   0.54750   0.00000  Uiso   1.00
S80    S     0.50384   0.10728   0.55801   0.00000  Uiso   1.00
S81    S     0.55130   0.03517   0.32311   0.00000  Uiso   1.00
S82    S     0.50236   0.10701   0.33368   0.00000  Uiso   1.00
C83    C     0.52868   0.07141   0.61770   0.00000  Uiso   1.00
C84    C     0.31660   0.54936   1.02481   0.00000  Uiso   1.00
C85    C     0.25386   0.58323   1.07221   0.00000  Uiso   1.00
C86    C     0.21977   0.52785   1.06293   0.00000  Uiso   1.00
S87    S     0.22433   0.62094   0.10340   0.00000  Uiso   1.00
S88    S     0.14872   0.49962   0.08249   0.00000  Uiso   1.00
S89    S     0.32431   0.61222   1.05049   0.00000  Uiso   1.00
S90    S     0.25040   0.49069   1.03070   0.00000  Uiso   1.00
C91    C     0.15750   0.56328   0.10675   0.00000  Uiso   1.00
C92    C     0.86958   0.37506   1.01909   0.00000  Uiso   1.00
C93    C     0.79542   0.28301   0.96539   0.00000  Uiso   1.00
C94    C     0.76849   0.30890   1.00157   0.00000  Uiso   1.00
S95    S     0.75502   0.21632   0.92694   0.00000  Uiso   1.00
S96    S     0.69688   0.27445   0.00336   0.00000  Uiso   1.00
S97    S     0.86764   0.31857   0.96410   0.00000  Uiso   1.00
S98    S     0.80764   0.37388   1.04632   0.00000  Uiso   1.00
C99    C     0.69347   0.21610  -0.04445   0.00000  Uiso   1.00
C100   C     0.88296   0.62073   0.11442   0.00000  Uiso   1.00
C101   C     0.79190   0.60838   0.07019   0.00000  Uiso   1.00
C102   C     0.82065   0.65822   1.11709   0.00000  Uiso   1.00
S103   S     0.72718   0.58721   0.02467   0.00000  Uiso   1.00
S104   S     0.78860   0.69546   1.13126   0.00000  Uiso   1.00
S105   S     0.82270   0.57035   0.05734   0.00000  Uiso   1.00
S106   S     0.88716   0.68041   1.15677   0.00000  Uiso   1.00
C107   C     0.73013   0.64599   1.06806   0.00000  Uiso   1.00
C108   C     0.35712   0.93349  -0.05275   0.00000  Uiso   1.00
C109   C     0.27199   0.84174  -0.06065   0.00000  Uiso   1.00
C110   C     0.25700   0.87343   0.99462   0.00000  Uiso   1.00
S111   S     0.22301   0.77390   0.92516   0.00000  Uiso   1.00
S112   S     0.19157   0.84310   1.05050   0.00000  Uiso   1.00
S113   S     0.34010   0.87093  -0.10501   0.00000  Uiso   1.00
S114   S     0.30617   0.94069   1.01215   0.00000  Uiso   1.00
C115   C     0.17480   0.78015   1.00144   0.00000  Uiso   1.00
C116   C     0.53402   0.89445   0.94302   0.00000  Uiso   1.00
C117   C     0.55814   0.82347  -0.04326   0.00000  Uiso   1.00
C118   C     0.50059   0.79704   0.96172   0.00000  Uiso   1.00
S119   S     0.58955   0.78590  -0.03607   0.00000  Uiso   1.00
S120   S     0.46347   0.72791   0.97502   0.00000  Uiso   1.00
S121   S     0.59536   0.89259  -0.05652   0.00000  Uiso   1.00
S122   S     0.46919   0.83466   0.95427   0.00000  Uiso   1.00
C123   C     0.52481   0.72594  -0.02467   0.00000  Uiso   1.00
C124   C     0.50625   0.41593  -0.04103   0.00000  Uiso   1.00
C125   C     0.47945   0.31941   0.95434   0.00000  Uiso   1.00
C126   C     0.53342   0.34858   0.91615   0.00000  Uiso   1.00
S127   S     0.44804   0.25009   0.96232   0.00000  Uiso   1.00
S128   S     0.56560   0.31441   0.87540   0.00000  Uiso   1.00
S129   S     0.44674   0.35413  -0.00921   0.00000  Uiso   1.00
S130   S     0.56578   0.41769   0.91026   0.00000  Uiso   1.00
C131   C     0.50703   0.25243   0.90869   0.00000  Uiso   1.00
loop_
_geom_bond_atom_site_label_1
_geom_bond_atom_site_label_2
_geom_bond_distance
_geom_bond_site_symmetry_2
_ccdc_geom_bond_type
C0     O8      1.218   .     D
C0     O9      1.390   .     S
C0     C107    1.466   .     S
Er1    O11     2.179   .     S
Er1    O13     2.171   .     S
Er1    O17     2.217   .     S
Er1    O15     2.171   1_554 S
Er1    O18     2.198   1_554 S
Er1    O19     2.184   1_554 S
Er2    O10     2.163   .     S
Er2    O12     2.174   .     S
Er2    O16     2.163   .     S
Er2    O4      2.172   1_554 S
Er2    O9      2.218   1_554 S
C3     O16     1.267   .     A
C3     O17     1.283   .     A
C3     C123    1.473   .     S
O4     C14     1.273   .     A
O4     Er2     2.172   1_556 S
C5     O12     1.273   .     A
C5     O13     1.272   .     A
C5     C60     1.471   .     S
C6     O10     1.266   .     A
C6     O11     1.269   .     A
C6     C124    1.468   .     S
C7     O18     1.263   .     A
C7     O19     1.272   .     A
C7     C84     1.465   .     S
O9     Er2     2.218   1_556 S
C14    O15     1.274   .     A
C14    C67     1.471   .     S
O15    Er1     2.171   1_556 S
O18    Er1     2.198   1_556 S
O19    Er1     2.184   1_556 S
C20    O28     1.218   .     D
C20    O29     1.391   .     S
C20    C92     1.467   .     S
Er21   O33     2.170   .     S
Er21   O37     2.165   .     S
Er21   O31     2.170   1_455 S
Er21   O35     2.203   1_554 S
Er21   O38     2.204   1_554 S
Er21   O39     2.181   1_554 S
Er22   O30     2.173   .     S
Er22   O32     2.171   .     S
Er22   O24     2.163   1_654 S
Er22   O29     2.217   1_554 S
Er22   O36     2.172   1_655 S
C23    O36     1.272   .     A
C23    O37     1.272   .     A
C23    C91     1.468   .     S
O24    C34     1.268   .     A
O24    Er22    2.163   1_456 S
C25    O33     1.267   .     A
C25    C75     1.470   .     S
C25    O32     1.267   1_455 A
C26    O30     1.273   .     A
C26    O31     1.272   .     A
C26    C100    1.468   .     S
C27    O38     1.271   .     A
C27    O39     1.259   .     A
C27    C115    1.461   .     S
O29    Er22    2.217   1_556 S
O31    Er21    2.170   1_655 S
O32    C25     1.267   1_655 A
C34    O35     1.281   .     A
C34    C68     1.469   .     S
O35    Er21    2.203   1_556 S
O36    Er22    2.172   1_455 S
O38    Er21    2.204   1_556 S
O39    Er21    2.181   1_556 S
C40    O48     1.217   .     D
C40    O49     1.395   .     S
C40    C131    1.468   .     S
Er41   O51     2.187   .     S
Er41   O53     2.174   .     S
Er41   O55     2.168   1_554 S
Er41   O57     2.214   1_545 S
Er41   O58     2.184   1_544 S
Er41   O59     2.204   1_544 S
Er42   O50     2.158   .     S
Er42   O52     2.169   .     S
Er42   O56     2.155   .     S
Er42   O44     2.178   1_554 S
Er42   O49     2.232   1_554 S
C43    O57     1.283   .     A
C43    C108    1.468   .     S
C43    O56     1.267   1_565 A
O44    C54     1.273   .     A
O44    Er42    2.178   1_556 S
C45    O52     1.273   .     A
C45    O53     1.273   .     A
C45    C76     1.471   .     S
C46    O50     1.263   .     A
C46    O51     1.269   .     A
C46    C99     1.469   .     S
C47    O58     1.260   .     A
C47    O59     1.273   .     A
C47    C116    1.469   .     S
O49    Er42    2.232   1_556 S
C54    O55     1.272   .     A
C54    C83     1.471   .     S
O55    Er41    2.168   1_556 S
O56    C43     1.267   1_545 A
O57    Er41    2.214   1_565 S
O58    Er41    2.184   1_566 S
O59    Er41    2.204   1_566 S
C60    S65     1.719   .     A
C60    S66     1.718   .     A
C61    C62     1.357   .     A
C61    S63     1.695   .     A
C61    S65     1.692   .     A
C62    S64     1.692   .     A
C62    S66     1.695   .     A
S63    C67     1.718   .     A
S64    C67     1.720   .     A
C68    S74     1.717   .     A
C68    S73     1.719   1_455 A
C69    S71     1.694   .     A
C69    S73     1.693   .     A
C69    C70     1.357   1_655 A
C70    S72     1.691   .     A
C70    S74     1.693   .     A
C70    C69     1.357   1_455 A
S71    C75     1.718   1_655 A
S72    C75     1.718   .     A
S73    C68     1.719   1_655 A
C75    S71     1.718   1_455 A
C76    S81     1.719   .     A
C76    S82     1.718   .     A
C77    C78     1.357   .     A
C77    S79     1.694   .     A
C77    S81     1.693   .     A
C78    S80     1.693   .     A
C78    S82     1.694   .     A
S79    C83     1.718   .     A
S80    C83     1.719   .     A
C84    S89     1.713   .     A
C84    S90     1.719   .     A
C85    C86     1.357   .     A
C85    S89     1.685   .     A
C85    S87     1.685   1_556 A
C86    S90     1.698   .     A
C86    S88     1.699   1_556 A
S87    C91     1.716   .     A
S87    C85     1.685   1_554 A
S88    C91     1.720   .     A
S88    C86     1.699   1_554 A
C92    S97     1.720   .     A
C92    S98     1.714   .     A
C93    C94     1.357   .     A
C93    S95     1.700   .     A
C93    S97     1.700   .     A
C94    S98     1.687   .     A
C94    S96     1.686   1_556 A
S95    C99     1.720   1_556 A
S96    C99     1.716   .     A
S96    C94     1.686   1_554 A
C99    S95     1.720   1_554 A
C100   S105    1.715   .     A
C100   S106    1.719   1_554 A
C101   S103    1.689   .     A
C101   S105    1.689   .     A
C101   C102    1.357   1_554 A
C102   S104    1.699   .     A
C102   S106    1.699   .     A
C102   C101    1.357   1_556 A
S103   C107    1.714   1_554 A
S104   C107    1.719   .     A
S106   C100    1.719   1_556 A
C107   S103    1.714   1_556 A
C108   S113    1.718   .     A
C108   S114    1.717   1_554 A
C109   S113    1.698   .     A
C109   C110    1.358   1_554 A
C109   S111    1.696   1_554 A
C110   S112    1.692   .     A
C110   S114    1.690   .     A
C110   C109    1.358   1_556 A
S111   C115    1.717   .     A
S111   C109    1.696   1_556 A
S112   C115    1.714   .     A
S114   C108    1.717   1_556 A
C116   S122    1.717   .     A
C116   S121    1.718   1_556 A
C117   S119    1.696   .     A
C117   S121    1.692   .     A
C117   C118    1.357   1_554 A
C118   S120    1.693   .     A
C118   S122    1.697   .     A
C118   C117    1.357   1_556 A
S119   C123    1.718   .     A
S120   C123    1.720   1_556 A
S121   C116    1.718   1_554 A
C123   S120    1.720   1_554 A
C124   S129    1.720   .     A
C124   S130    1.716   1_554 A
C125   C126    1.357   .     A
C125   S127    1.699   .     A
C125   S129    1.698   1_556 A
C126   S128    1.688   .     A
C126   S130    1.689   .     A
S127   C131    1.718   .     A
S128   C131    1.717   .     A
S129   C125    1.698   1_554 A
S130   C124    1.716   1_556 A
