data_kag+N123+E28
_audit_creation_date              2025-01-21
_audit_creation_method            'Materials Studio'
_symmetry_space_group_name_H-M    'P1'
_symmetry_Int_Tables_number       1
_symmetry_cell_setting            triclinic
loop_
_symmetry_equiv_pos_as_xyz
  x,y,z
_cell_length_a                    43.8257
_cell_length_b                    42.1747
_cell_length_c                    19.0833
_cell_angle_alpha                 99.5677
_cell_angle_beta                  89.8902
_cell_angle_gamma                 125.0705
loop_
_atom_site_label
_atom_site_type_symbol
_atom_site_fract_x
_atom_site_fract_y
_atom_site_fract_z
_atom_site_U_iso_or_equiv
_atom_site_adp_type
_atom_site_occupancy
Ce0    Ce    0.54381   0.51523   0.00992   0.00000  Uiso   1.00
Ce1    Ce    0.46390   0.48223   0.98760   0.00000  Uiso   1.00
C2     C     0.47374   0.49610   0.13123   0.00000  Uiso   1.00
C3     C     0.61713   0.54394   0.02053   0.00000  Uiso   1.00
C4     C     0.52275   0.57689   1.00142   0.00000  Uiso   1.00
C5     C     0.53340   0.50891   0.86867   0.00000  Uiso   1.00
C6     C     0.39133   0.45598   0.97642   0.00000  Uiso   1.00
C7     C     0.48442   0.42034  -0.00504   0.00000  Uiso   1.00
O8     O     0.44361   0.48310   0.09789   0.00000  Uiso   1.00
O9     O     0.50240   0.50412   0.08893   0.00000  Uiso   1.00
O10    O     0.59979   0.54214   0.07537   0.00000  Uiso   1.00
O11    O     0.59731   0.53234   0.96045   0.00000  Uiso   1.00
O12    O     0.55002   0.57380   1.01260   0.00000  Uiso   1.00
O13    O     0.48774   0.54719   0.99127   0.00000  Uiso   1.00
O14    O     0.56448   0.52381   0.89998   0.00000  Uiso   1.00
O15    O     0.50405   0.48805   0.90875   0.00000  Uiso   1.00
O16    O     0.40841   0.45665   0.92160   0.00000  Uiso   1.00
O17    O     0.41101   0.46754   0.03670   0.00000  Uiso   1.00
O18    O     0.45697   0.42381  -0.01100   0.00000  Uiso   1.00
O19    O     0.51981   0.44949   0.00132   0.00000  Uiso   1.00
Ce20   Ce    0.02583   0.48333  -0.00910   0.00000  Uiso   1.00
Ce21   Ce    0.97944   0.51286   0.01128   0.00000  Uiso   1.00
C22    C     0.98471   0.50810   0.87107   0.00000  Uiso   1.00
C23    C     0.07157   0.45957   0.98030   0.00000  Uiso   1.00
C24    C     0.93685   0.41837  -0.00624   0.00000  Uiso   1.00
C25    C     0.02976   0.49633   0.13423   0.00000  Uiso   1.00
C26    C     0.93505   0.53808   0.02022   0.00000  Uiso   1.00
C27    C     0.06839   0.57772   1.00460   0.00000  Uiso   1.00
O28    O     0.96876   0.52163   0.90168   0.00000  Uiso   1.00
O29    O    -0.00866   0.48742   0.91085   0.00000  Uiso   1.00
O30    O     0.05502   0.45982   0.92545   0.00000  Uiso   1.00
O31    O     0.06396   0.47049   0.04045   0.00000  Uiso   1.00
O32    O     0.96916   0.42372  -0.00792   0.00000  Uiso   1.00
O33    O     0.93223   0.44643  -0.00138   0.00000  Uiso   1.00
O34    O     0.04713   0.48511   0.10160   0.00000  Uiso   1.00
O35    O     0.00928   0.50322   0.09133   0.00000  Uiso   1.00
O36    O     0.95045   0.53681   0.07549   0.00000  Uiso   1.00
O37    O     0.94341   0.52781   0.96051   0.00000  Uiso   1.00
O38    O     0.03698   0.57306   1.01589   0.00000  Uiso   1.00
O39    O     0.07202   0.54899   0.99484   0.00000  Uiso   1.00
Ce40   Ce    0.51604   0.97045   1.01055   0.00000  Uiso   1.00
Ce41   Ce    0.49369   0.02939   0.00550   0.00000  Uiso   1.00
C42    C     0.49172   0.00675   0.13581   0.00000  Uiso   1.00
C43    C     0.53411   0.91882   1.00593   0.00000  Uiso   1.00
C44    C     0.58270   0.06322   1.00659   0.00000  Uiso   1.00
C45    C     0.51836   0.99279   0.87988   0.00000  Uiso   1.00
C46    C     0.47558   0.08065   0.00582   0.00000  Uiso   1.00
C47    C     0.42663   0.93638   0.00758   0.00000  Uiso   1.00
O48    O     0.46695   0.00673   0.10841   0.00000  Uiso   1.00
O49    O     0.51997   0.01827   0.09277   0.00000  Uiso   1.00
O50    O     0.54054   0.94344   0.06301   0.00000  Uiso   1.00
O51    O     0.51916   0.92119   0.95161   0.00000  Uiso   1.00
O52    O     0.57463   0.02819   1.00594   0.00000  Uiso   1.00
O53    O     0.55829   0.07147   0.00627   0.00000  Uiso   1.00
O54    O     0.54303   0.99282   0.90781   0.00000  Uiso   1.00
O55    O     0.49004   0.98168   0.92295   0.00000  Uiso   1.00
O56    O     0.46983   0.05578   0.94976   0.00000  Uiso   1.00
O57    O     0.48974   0.07865   0.06190   0.00000  Uiso   1.00
O58    O     0.43464   0.97144   0.00853   0.00000  Uiso   1.00
O59    O     0.45152   0.92882   1.00984   0.00000  Uiso   1.00
C60    C     0.49155   0.51056   0.35795   0.00000  Uiso   1.00
C61    C     0.45547   0.49375   0.32438   0.00000  Uiso   1.00
C62    C     0.44955   0.48977   0.25058   0.00000  Uiso   1.00
C63    C     0.47961   0.50235   0.20934   0.00000  Uiso   1.00
C64    C     0.51570   0.51982   0.24293   0.00000  Uiso   1.00
C65    C     0.52168   0.52404   0.31651   0.00000  Uiso   1.00
C66    C     0.49772   0.51276   0.43514   0.00000  Uiso   1.00
N67    N     0.53260   0.52872   0.46681   0.00000  Uiso   1.00
N68    N     0.53812   0.52906   0.53546   0.00000  Uiso   1.00
C69    C     0.50900   0.51344   0.57539   0.00000  Uiso   1.00
N70    N     0.47412   0.49784   0.54399   0.00000  Uiso   1.00
N71    N     0.46859   0.49748   0.47521   0.00000  Uiso   1.00
C72    C     0.51523   0.51269   0.65089   0.00000  Uiso   1.00
C73    C     0.48500   0.49499   0.69182   0.00000  Uiso   1.00
C74    C     0.49107   0.49371   0.76271   0.00000  Uiso   1.00
C75    C     0.52736   0.50998   0.79378   0.00000  Uiso   1.00
C76    C     0.55764   0.52798   0.75336   0.00000  Uiso   1.00
C77    C     0.55160   0.52918   0.68245   0.00000  Uiso   1.00
H78    H     0.43170   0.48309   0.35489   0.00000  Uiso   1.00
H79    H     0.42145   0.47626   0.22568   0.00000  Uiso   1.00
H80    H     0.53936   0.52991   0.21221   0.00000  Uiso   1.00
H81    H     0.54985   0.53718   0.34056   0.00000  Uiso   1.00
H82    H     0.45664   0.48198   0.66916   0.00000  Uiso   1.00
H83    H     0.46738   0.48015   0.79336   0.00000  Uiso   1.00
H84    H     0.58598   0.54112   0.77647   0.00000  Uiso   1.00
H85    H     0.57547   0.54295   0.65234   0.00000  Uiso   1.00
C86    C     0.01029   0.51641   0.65591   0.00000  Uiso   1.00
C87    C     1.02251   0.50010   0.69692   0.00000  Uiso   1.00
C88    C     1.01397   0.49722   0.76705   0.00000  Uiso   1.00
C89    C    -0.00680   0.51069   0.79718   0.00000  Uiso   1.00
C90    C    -0.01839   0.52768   0.75698   0.00000  Uiso   1.00
C91    C    -0.00998   0.53046   0.68693   0.00000  Uiso   1.00
C92    C     0.01692   0.51710   0.58024   0.00000  Uiso   1.00
N93    N     0.00281   0.53045   0.53975   0.00000  Uiso   1.00
N94    N     0.00650   0.52876   0.47040   0.00000  Uiso   1.00
C95    C     0.02441   0.51361   0.43847   0.00000  Uiso   1.00
N96    N     1.03905   0.50080   0.47915   0.00000  Uiso   1.00
N97    N     1.03535   0.50248   0.54860   0.00000  Uiso   1.00
C98    C     0.02684   0.51007   0.36079   0.00000  Uiso   1.00
C99    C     1.04561   0.49467   0.32748   0.00000  Uiso   1.00
C100   C     1.04716   0.49066   0.25371   0.00000  Uiso   1.00
C101   C     0.02968   0.50166   0.21212   0.00000  Uiso   1.00
C102   C     0.01099   0.51708   0.24521   0.00000  Uiso   1.00
C103   C     0.00959   0.52129   0.31883   0.00000  Uiso   1.00
H104   H     1.03832   0.48917   0.67473   0.00000  Uiso   1.00
H105   H     1.02365   0.48455   0.79774   0.00000  Uiso   1.00
H106   H    -0.03414   0.53862   0.77956   0.00000  Uiso   1.00
H107   H    -0.01976   0.54323   0.65688   0.00000  Uiso   1.00
H108   H     1.05902   0.48562   0.35831   0.00000  Uiso   1.00
H109   H     1.06155   0.47848   0.22909   0.00000  Uiso   1.00
H110   H    -0.00276   0.52575   0.21415   0.00000  Uiso   1.00
H111   H    -0.00523   0.53310   0.34267   0.00000  Uiso   1.00
C112   C     0.49799  -0.00405   0.35635   0.00000  Uiso   1.00
C113   C     0.46555   0.98898   0.32258   0.00000  Uiso   1.00
C114   C     0.46302   0.99098   0.25039   0.00000  Uiso   1.00
C115   C     0.49287   0.00008   0.20974   0.00000  Uiso   1.00
C116   C     0.52497   0.00613   0.24264   0.00000  Uiso   1.00
C117   C     0.52748   0.00401   0.31499   0.00000  Uiso   1.00
C118   C     0.50124  -0.00414   0.43444   0.00000  Uiso   1.00
N119   N     0.53260   0.00303   0.46796   0.00000  Uiso   1.00
N120   N     0.53574   0.00395   0.53798   0.00000  Uiso   1.00
C121   C     0.50776  -0.00211   0.57799   0.00000  Uiso   1.00
N122   N     0.47634   0.99052   0.54438   0.00000  Uiso   1.00
N123   N     0.47318   0.98956   0.47438   0.00000  Uiso   1.00
C124   C     0.51137   0.99911   0.65662   0.00000  Uiso   1.00
C125   C     0.48268   0.99345   0.69847   0.00000  Uiso   1.00
C126   C     0.48553   0.99299   0.77168   0.00000  Uiso   1.00
C127   C     0.51718   0.99836   0.80501   0.00000  Uiso   1.00
C128   C     0.54633   0.00520   0.76378   0.00000  Uiso   1.00
C129   C     0.54343   0.00546   0.69069   0.00000  Uiso   1.00
H130   H     0.44225   0.98269   0.35235   0.00000  Uiso   1.00
H131   H     0.43794   0.98632   0.22682   0.00000  Uiso   1.00
H132   H     0.54854   0.01348   0.21290   0.00000  Uiso   1.00
H133   H     0.55290   0.00950   0.33886   0.00000  Uiso   1.00
H134   H     0.45764   0.98865   0.67438   0.00000  Uiso   1.00
H135   H     0.46253   0.98747   0.80178   0.00000  Uiso   1.00
H136   H     0.57105   0.00926   0.78761   0.00000  Uiso   1.00
H137   H     0.56611   0.00991   0.66056   0.00000  Uiso   1.00
C138   C     0.28160   0.43110  -0.03345   0.00000  Uiso   1.00
C139   C     0.30037   0.43655   0.03193   0.00000  Uiso   1.00
C140   C     0.33549   0.44332   0.03447   0.00000  Uiso   1.00
C141   C     0.35255   0.44452   0.97172   0.00000  Uiso   1.00
C142   C     0.33331   0.43751   0.90591   0.00000  Uiso   1.00
C143   C     0.29809   0.43079   0.90331   0.00000  Uiso   1.00
C144   C     0.24653   0.42872  -0.03448   0.00000  Uiso   1.00
N145   N     0.22999   0.42751   0.90399   0.00000  Uiso   1.00
N146   N     0.20021   0.42861   0.90451   0.00000  Uiso   1.00
C147   C     0.18574   0.43102  -0.03341   0.00000  Uiso   1.00
N148   N     0.20197   0.43164   0.02781   0.00000  Uiso   1.00
N149   N     0.23169   0.43053   0.02729   0.00000  Uiso   1.00
C150   C     0.15435   0.43516  -0.03135   0.00000  Uiso   1.00
C151   C     0.14184   0.44076   0.03439   0.00000  Uiso   1.00
C152   C     0.11423   0.44761   0.03771   0.00000  Uiso   1.00
C153   C     0.09839   0.44895  -0.02461   0.00000  Uiso   1.00
C154   C     0.11008   0.44237   0.90933   0.00000  Uiso   1.00
C155   C     0.13784   0.43559   0.90597   0.00000  Uiso   1.00
H156   H     0.28855   0.43689   0.08170   0.00000  Uiso   1.00
H157   H     0.34980   0.44878   0.08601   0.00000  Uiso   1.00
H158   H     0.34599   0.43854   0.85679   0.00000  Uiso   1.00
H159   H     0.28433   0.42656   0.85206   0.00000  Uiso   1.00
H160   H     0.15400   0.44079   0.08378   0.00000  Uiso   1.00
H161   H     0.10584   0.45268   0.08942   0.00000  Uiso   1.00
H162   H     0.09850   0.44352   0.86049   0.00000  Uiso   1.00
H163   H     0.14691   0.43155   0.85448   0.00000  Uiso   1.00
C164   C     0.83728   0.30200  -0.01366   0.00000  Uiso   1.00
C165   C     0.86847   0.31756   0.03634   0.00000  Uiso   1.00
C166   C     0.90142   0.35511   0.03741   0.00000  Uiso   1.00
C167   C     0.90321   0.37800  -0.01013   0.00000  Uiso   1.00
C168   C     0.87214   0.36259   0.93997   0.00000  Uiso   1.00
C169   C     0.83962   0.32459   0.93739   0.00000  Uiso   1.00
C170   C     0.80165   0.26357   0.98822   0.00000  Uiso   1.00
N171   N     0.77718   0.24083   0.92809   0.00000  Uiso   1.00
N172   N     0.74394   0.20742   0.93102   0.00000  Uiso   1.00
C173   C     0.73377   0.19576   0.99436   0.00000  Uiso   1.00
N174   N     0.75838   0.21836   0.05432   0.00000  Uiso   1.00
N175   N     0.79176   0.25152   0.05128   0.00000  Uiso   1.00
C176   C     0.69585   0.16046   0.99870   0.00000  Uiso   1.00
C177   C     0.67892   0.15838   0.06209   0.00000  Uiso   1.00
C178   C     0.64203   0.12643   0.06490   0.00000  Uiso   1.00
C179   C     0.62200   0.09560   1.00512   0.00000  Uiso   1.00
C180   C     0.63908   0.09688   0.94251   0.00000  Uiso   1.00
C181   C     0.67564   0.12934   0.93899   0.00000  Uiso   1.00
H182   H     0.86731   0.30074   0.07470   0.00000  Uiso   1.00
H183   H     0.92505   0.36684   0.07684   0.00000  Uiso   1.00
H184   H     0.87313   0.37999   0.90298   0.00000  Uiso   1.00
H185   H     0.81589   0.31343   0.89871   0.00000  Uiso   1.00
H186   H     0.69376   0.18209   0.10872   0.00000  Uiso   1.00
H187   H     0.62905   0.12585   0.11352   0.00000  Uiso   1.00
H188   H     0.62370   0.07330   0.89585   0.00000  Uiso   1.00
H189   H     0.68804   0.13018   0.88956   0.00000  Uiso   1.00
C190   C     0.85348   0.56404   1.03011   0.00000  Uiso   1.00
C191   C     0.86593   0.55802   0.96453   0.00000  Uiso   1.00
C192   C     0.89311   0.55055   0.96170   0.00000  Uiso   1.00
C193   C     0.90855   0.54905   1.02435   0.00000  Uiso   1.00
C194   C     0.89672   0.55572   0.09012   0.00000  Uiso   1.00
C195   C     0.86943   0.56315   0.09301   0.00000  Uiso   1.00
C196   C     0.82261   0.56899   1.03185   0.00000  Uiso   1.00
N197   N     0.80827   0.57187   0.09385   0.00000  Uiso   1.00
N198   N     0.77875   0.57346   0.09410   0.00000  Uiso   1.00
C199   C     0.76239   0.57228   1.03237   0.00000  Uiso   1.00
N200   N     0.77719   0.57011   0.97071   0.00000  Uiso   1.00
N201   N     0.80666   0.56854   0.97047   0.00000  Uiso   1.00
C202   C     0.72741   0.57013   1.03096   0.00000  Uiso   1.00
C203   C     0.70837   0.56388   0.96529   0.00000  Uiso   1.00
C204   C     0.67321   0.55707   0.96250   0.00000  Uiso   1.00
C205   C     0.65630   0.55644   0.02526   0.00000  Uiso   1.00
C206   C     0.67604   0.56472   0.09138   0.00000  Uiso   1.00
C207   C     0.71128   0.57146   0.09421   0.00000  Uiso   1.00
H208   H     0.85407   0.55815   0.91493   0.00000  Uiso   1.00
H209   H     0.90147   0.54511   0.91017   0.00000  Uiso   1.00
H210   H     0.90785   0.55419   0.13910   0.00000  Uiso   1.00
H211   H     0.86030   0.56734   0.14433   0.00000  Uiso   1.00
H212   H     0.72001   0.56292   0.91553   0.00000  Uiso   1.00
H213   H     0.65872   0.55103   0.91081   0.00000  Uiso   1.00
H214   H     0.66375   0.56474   0.14066   0.00000  Uiso   1.00
H215   H     0.72535   0.57657   0.14574   0.00000  Uiso   1.00
C216   C     0.31153   0.83558  -0.00647   0.00000  Uiso   1.00
C217   C     0.33933   0.83174   0.96625   0.00000  Uiso   1.00
C218   C     0.37634   0.86456   0.97125   0.00000  Uiso   1.00
C219   C     0.38681   0.90242   0.00289   0.00000  Uiso   1.00
C220   C     0.35913   0.90684   0.02909   0.00000  Uiso   1.00
C221   C     0.32177   0.87357   0.02500   0.00000  Uiso   1.00
C222   C     0.27272   0.79939  -0.01023   0.00000  Uiso   1.00
N223   N     0.24627   0.79943   0.02723   0.00000  Uiso   1.00
N224   N     0.21249   0.76571   0.02668   0.00000  Uiso   1.00
C225   C     0.20390   0.73072  -0.01145   0.00000  Uiso   1.00
N226   N     0.23014   0.73109   0.95023   0.00000  Uiso   1.00
N227   N     0.26368   0.76454   0.95084   0.00000  Uiso   1.00
C228   C     0.16784   0.69222   0.99100   0.00000  Uiso   1.00
C229   C     0.16252   0.65703   0.95600   0.00000  Uiso   1.00
C230   C     0.13029   0.62032   0.96090   0.00000  Uiso   1.00
C231   C     0.10201   0.61746   1.00018   0.00000  Uiso   1.00
C232   C     0.10644   0.65246   0.03359   0.00000  Uiso   1.00
C233   C     0.13926   0.68960   0.02947   0.00000  Uiso   1.00
H234   H     0.33272   0.80311   0.94164   0.00000  Uiso   1.00
H235   H     0.39687   0.86024   0.94970   0.00000  Uiso   1.00
H236   H     0.36650   0.93577   0.05391   0.00000  Uiso   1.00
H237   H     0.30102   0.87755   0.04639   0.00000  Uiso   1.00
H238   H     0.18356   0.65762   0.92525   0.00000  Uiso   1.00
H239   H     0.12744   0.59400   0.93322   0.00000  Uiso   1.00
H240   H     0.08492   0.65111   0.06382   0.00000  Uiso   1.00
H241   H     0.14238   0.71611   0.05682   0.00000  Uiso   1.00
C242   C     0.55229   0.82824   0.99520   0.00000  Uiso   1.00
C243   C     0.56293   0.85594   0.05936   0.00000  Uiso   1.00
C244   C     0.55780   0.88605   0.06299   0.00000  Uiso   1.00
C245   C     0.54214   0.88905   1.00241   0.00000  Uiso   1.00
C246   C     0.53261   0.86213   0.93796   0.00000  Uiso   1.00
C247   C     0.53758   0.83211   0.93437   0.00000  Uiso   1.00
C248   C     0.55398   0.79393   0.99222   0.00000  Uiso   1.00
N249   N     0.53604   0.76321   0.93521   0.00000  Uiso   1.00
N250   N     0.53447   0.73074   0.93435   0.00000  Uiso   1.00
C251   C     0.55094   0.72750   0.99025   0.00000  Uiso   1.00
N252   N     0.56972   0.75856   0.04670   0.00000  Uiso   1.00
N253   N     0.57112   0.79106   0.04773   0.00000  Uiso   1.00
C254   C     0.54550   0.68962   0.99167   0.00000  Uiso   1.00
C255   C     0.57041   0.68778   0.03427   0.00000  Uiso   1.00
C256   C     0.56366   0.65121   0.03677   0.00000  Uiso   1.00
C257   C     0.53145   0.61598   0.99804   0.00000  Uiso   1.00
C258   C     0.50683   0.61801   0.95529   0.00000  Uiso   1.00
C259   C     0.51397   0.65436   0.95155   0.00000  Uiso   1.00
H260   H     0.57423   0.85371   0.10723   0.00000  Uiso   1.00
H261   H     0.56542   0.90645   0.11341   0.00000  Uiso   1.00
H262   H     0.52053   0.86376   0.89038   0.00000  Uiso   1.00
H263   H     0.52923   0.81149   0.88397   0.00000  Uiso   1.00
H264   H     0.59507   0.71455   0.06538   0.00000  Uiso   1.00
H265   H     0.58309   0.65037   0.07003   0.00000  Uiso   1.00
H266   H     0.48200   0.59136   0.92422   0.00000  Uiso   1.00
H267   H     0.49419   0.65472   0.91838   0.00000  Uiso   1.00
C268   C     0.46236   0.30787  -0.00057   0.00000  Uiso   1.00
C269   C     0.47594   0.33713   0.06224   0.00000  Uiso   1.00
C270   C     0.48256   0.37352   0.06056   0.00000  Uiso   1.00
C271   C     0.47511   0.38112  -0.00353   0.00000  Uiso   1.00
C272   C     0.46031   0.35173   0.93405   0.00000  Uiso   1.00
C273   C     0.45414   0.31536   0.93537   0.00000  Uiso   1.00
C274   C     0.45885   0.27084   0.00070   0.00000  Uiso   1.00
N275   N     0.45017   0.24424   0.93940   0.00000  Uiso   1.00
N276   N     0.44942   0.21229   0.94057   0.00000  Uiso   1.00
C277   C     0.45729   0.20557   0.00307   0.00000  Uiso   1.00
N278   N     0.46560   0.23198   0.06433   0.00000  Uiso   1.00
N279   N     0.46636   0.26388   0.06316   0.00000  Uiso   1.00
C280   C     0.45876   0.17139   0.00426   0.00000  Uiso   1.00
C281   C     0.46853   0.16581   0.06901   0.00000  Uiso   1.00
C282   C     0.47310   0.13570   0.06960   0.00000  Uiso   1.00
C283   C     0.46772   0.11031   0.00560   0.00000  Uiso   1.00
C284   C     0.45656   0.11481   0.94121   0.00000  Uiso   1.00
C285   C     0.45208   0.14504   0.94054   0.00000  Uiso   1.00
H286   H     0.48233   0.33233   0.11258   0.00000  Uiso   1.00
H287   H     0.49381   0.39594   0.10925   0.00000  Uiso   1.00
H288   H     0.45460   0.35737   0.88404   0.00000  Uiso   1.00
H289   H     0.44358   0.29347   0.88608   0.00000  Uiso   1.00
H290   H     0.47335   0.18516   0.11929   0.00000  Uiso   1.00
H291   H     0.48149   0.13273   0.12010   0.00000  Uiso   1.00
H292   H     0.45216   0.09558   0.89110   0.00000  Uiso   1.00
H293   H     0.44409   0.14818   0.88988   0.00000  Uiso   1.00
loop_
_geom_bond_atom_site_label_1
_geom_bond_atom_site_label_2
_geom_bond_distance
_geom_bond_site_symmetry_2
_ccdc_geom_bond_type
Ce0    O9      2.244   .     S
Ce0    O10     2.282   .     S
Ce0    O19     2.306   .     S
Ce0    O11     2.277   1_554 S
Ce0    O12     2.316   1_554 S
Ce0    O14     2.285   1_554 S
Ce0    O15     2.249   1_554 S
Ce1    O13     2.291   .     S
Ce1    O15     2.244   .     S
Ce1    O16     2.282   .     S
Ce1    O8      2.286   1_556 S
Ce1    O9      2.251   1_556 S
Ce1    O17     2.273   1_556 S
Ce1    O18     2.308   1_556 S
C2     O8      1.227   .     D
C2     O9      1.394   .     S
C2     C63     1.466   .     S
C3     O10     1.279   .     A
C3     C205    1.476   .     S
C3     O11     1.280   1_554 A
C4     O12     1.296   .     A
C4     O13     1.293   .     A
C4     C257    1.477   .     S
C5     O14     1.226   .     D
C5     O15     1.390   .     S
C5     C75     1.467   .     S
C6     O16     1.280   .     A
C6     C141    1.474   .     S
C6     O17     1.280   1_556 A
C7     O18     1.300   .     A
C7     O19     1.301   .     A
C7     C271    1.464   .     S
O8     Ce1     2.286   1_554 S
O9     Ce1     2.251   1_554 S
O11    Ce0     2.277   1_556 S
O11    C3      1.280   1_556 A
O12    Ce0     2.316   1_556 S
O14    Ce0     2.285   1_556 S
O15    Ce0     2.249   1_556 S
O17    Ce1     2.273   1_554 S
O17    C6      1.280   1_554 A
O18    Ce1     2.308   1_554 S
Ce20   O31     2.280   .     S
Ce20   O34     2.283   .     S
Ce20   O35     2.250   .     S
Ce20   O29     2.246   1_554 S
Ce20   O30     2.285   1_554 S
Ce20   O32     2.309   1_455 S
Ce20   O39     2.294   1_554 S
Ce21   O33     2.303   .     S
Ce21   O36     2.279   .     S
Ce21   O28     2.278   1_554 S
Ce21   O29     2.248   1_654 S
Ce21   O35     2.244   1_655 S
Ce21   O37     2.276   1_554 S
Ce21   O38     2.320   1_654 S
C22    O28     1.225   .     D
C22    O29     1.390   1_655 S
C22    C89     1.463   1_655 S
C23    O30     1.279   .     A
C23    O31     1.281   1_556 A
C23    C153    1.477   1_556 S
C24    O32     1.301   .     A
C24    O33     1.300   .     A
C24    C167    1.467   .     S
C25    O34     1.227   .     D
C25    O35     1.393   .     S
C25    C101    1.466   .     S
C26    O36     1.279   .     A
C26    O37     1.280   1_554 A
C26    C193    1.474   1_554 S
C27    O38     1.297   .     A
C27    O39     1.294   .     A
C27    C231    1.482   .     S
O28    Ce21    2.278   1_556 S
O29    Ce20    2.246   1_556 S
O29    Ce21    2.248   1_456 S
O29    C22     1.390   1_455 S
O30    Ce20    2.285   1_556 S
O31    C23     1.281   1_554 A
O32    Ce20    2.309   1_655 S
O35    Ce21    2.244   1_455 S
O37    Ce21    2.276   1_556 S
O37    C26     1.280   1_556 A
O38    Ce21    2.320   1_456 S
O39    Ce20    2.294   1_556 S
Ce40   O51     2.269   .     S
Ce40   O54     2.336   .     S
Ce40   O55     2.282   .     S
Ce40   O59     2.316   .     S
Ce40   O49     2.260   1_566 S
Ce40   O50     2.290   1_556 S
Ce40   O52     2.327   1_565 S
Ce41   O48     2.339   .     S
Ce41   O49     2.282   .     S
Ce41   O53     2.320   .     S
Ce41   O57     2.274   .     S
Ce41   O55     2.266   1_544 S
Ce41   O56     2.280   1_554 S
Ce41   O58     2.335   1_545 S
C42    O48     1.205   .     D
C42    O49     1.372   .     S
C42    C115    1.490   .     S
C43    O51     1.275   .     A
C43    C245    1.478   .     S
C43    O50     1.278   1_556 A
C44    O52     1.304   .     A
C44    C179    1.464   .     S
C44    O53     1.301   1_556 A
C45    O54     1.206   .     D
C45    O55     1.375   .     S
C45    C127    1.492   .     S
C46    O57     1.277   .     A
C46    C283    1.476   .     S
C46    O56     1.278   1_554 A
C47    O58     1.306   .     A
C47    C219    1.480   .     S
C47    O59     1.303   1_554 A
O49    Ce40    2.260   1_544 S
O50    Ce40    2.290   1_554 S
O50    C43     1.278   1_554 A
O52    Ce40    2.327   1_545 S
O53    C44     1.301   1_554 A
O55    Ce41    2.266   1_566 S
O56    Ce41    2.280   1_556 S
O56    C46     1.278   1_556 A
O58    Ce41    2.335   1_565 S
O59    C47     1.303   1_556 A
C60    C61     1.407   .     A
C60    C65     1.405   .     A
C60    C66     1.476   .     S
C61    C62     1.397   .     A
C61    H78     1.083   .     S
C62    C63     1.403   .     A
C62    H79     1.083   .     S
C63    C64     1.401   .     A
C64    C65     1.392   .     A
C64    H80     1.083   .     S
C65    H81     1.083   .     S
C66    N67     1.357   .     A
C66    N71     1.358   .     A
N67    N68     1.329   .     A
N68    C69     1.357   .     A
C69    N70     1.358   .     A
C69    C72     1.476   .     S
N70    N71     1.331   .     A
C72    C73     1.405   .     A
C72    C77     1.406   .     A
C73    C74     1.395   .     A
C73    H82     1.083   .     S
C74    C75     1.402   .     A
C74    H83     1.083   .     S
C75    C76     1.402   .     A
C76    C77     1.394   .     A
C76    H84     1.083   .     S
C77    H85     1.083   .     S
C86    C91     1.406   .     A
C86    C92     1.474   .     S
C86    C87     1.406   1_455 A
C87    C88     1.395   .     A
C87    H104    1.083   .     S
C87    C86     1.406   1_655 A
C88    H105    1.084   .     S
C88    C89     1.402   1_655 A
C89    C90     1.401   .     A
C89    C88     1.402   1_455 A
C89    C22     1.463   1_455 S
C90    C91     1.392   .     A
C90    H106    1.084   .     S
C91    H107    1.082   .     S
C92    N93     1.357   .     A
C92    N97     1.358   1_455 A
N93    N94     1.328   .     A
N94    C95     1.357   .     A
C95    C98     1.475   .     S
C95    N96     1.359   1_455 A
N96    N97     1.330   .     A
N96    C95     1.359   1_655 A
N97    C92     1.358   1_655 A
C98    C103    1.405   .     A
C98    C99     1.406   1_455 A
C99    C100    1.396   .     A
C99    H108    1.082   .     S
C99    C98     1.406   1_655 A
C100   H109    1.083   .     S
C100   C101    1.402   1_655 A
C101   C102    1.402   .     A
C101   C100    1.402   1_455 A
C102   C103    1.392   .     A
C102   H110    1.084   .     S
C103   H111    1.083   .     S
C112   C117    1.411   .     A
C112   C118    1.498   .     S
C112   C113    1.408   1_545 A
C113   C114    1.403   .     A
C113   H130    1.083   .     S
C113   C112    1.408   1_565 A
C114   H131    1.083   .     S
C114   C115    1.407   1_565 A
C115   C116    1.406   .     A
C115   C114    1.407   1_545 A
C116   C117    1.407   .     A
C116   H132    1.083   .     S
C117   H133    1.083   .     S
C118   N119    1.361   .     A
C118   N123    1.361   1_545 A
N119   N120    1.335   .     A
N120   C121    1.361   .     A
C121   N122    1.360   1_545 A
C121   C124    1.498   1_545 S
N122   N123    1.335   .     A
N122   C121    1.360   1_565 A
N123   C118    1.361   1_565 A
C124   C125    1.411   .     A
C124   C121    1.498   1_565 S
C124   C129    1.408   1_565 A
C125   C126    1.407   .     A
C125   H134    1.083   .     S
C126   C127    1.405   .     A
C126   H135    1.083   .     S
C127   C128    1.408   1_565 A
C128   C129    1.403   .     A
C128   H136    1.083   .     S
C128   C127    1.408   1_545 A
C129   H137    1.083   .     S
C129   C124    1.408   1_545 A
C138   C139    1.406   .     A
C138   C144    1.481   .     S
C138   C143    1.407   1_554 A
C139   C140    1.394   .     A
C139   H156    1.083   .     S
C140   H157    1.084   .     S
C140   C141    1.403   1_554 A
C141   C142    1.404   .     A
C141   C140    1.403   1_556 A
C142   C143    1.399   .     A
C142   H158    1.083   .     S
C143   H159    1.083   .     S
C143   C138    1.407   1_556 A
C144   N149    1.358   .     A
C144   N145    1.359   1_554 A
N145   N146    1.333   .     A
N145   C144    1.359   1_556 A
N146   C147    1.359   1_556 A
C147   N148    1.358   .     A
C147   C150    1.482   .     S
C147   N146    1.359   1_554 A
N148   N149    1.330   .     A
C150   C151    1.406   .     A
C150   C155    1.407   1_554 A
C151   C152    1.396   .     A
C151   H160    1.083   .     S
C152   C153    1.404   .     A
C152   H161    1.083   .     S
C153   C154    1.405   1_554 A
C153   C23     1.477   1_554 S
C154   C155    1.400   .     A
C154   H162    1.083   .     S
C154   C153    1.405   1_556 A
C155   H163    1.083   .     S
C155   C150    1.407   1_556 A
C164   C165    1.406   .     A
C164   C169    1.405   1_554 A
C164   C170    1.476   1_554 S
C165   C166    1.398   .     A
C165   H182    1.083   .     S
C166   C167    1.402   .     A
C166   H183    1.084   .     S
C167   C168    1.402   1_554 A
C168   C169    1.397   .     A
C168   H184    1.084   .     S
C168   C167    1.402   1_556 A
C169   H185    1.083   .     S
C169   C164    1.405   1_556 A
C170   N171    1.358   .     A
C170   C164    1.476   1_556 S
C170   N175    1.357   1_556 A
N171   N172    1.333   .     A
N172   C173    1.358   .     A
C173   C176    1.477   .     S
C173   N174    1.357   1_556 A
N174   N175    1.332   .     A
N174   C173    1.357   1_554 A
N175   C170    1.357   1_554 A
C176   C181    1.406   .     A
C176   C177    1.407   1_556 A
C177   C178    1.397   .     A
C177   H186    1.083   .     S
C177   C176    1.407   1_554 A
C178   H187    1.084   .     S
C178   C179    1.401   1_554 A
C179   C180    1.401   .     A
C179   C178    1.401   1_556 A
C180   C181    1.398   .     A
C180   H188    1.084   .     S
C181   H189    1.083   .     S
C190   C191    1.407   .     A
C190   C196    1.482   .     S
C190   C195    1.407   1_556 A
C191   C192    1.395   .     A
C191   H208    1.083   .     S
C192   C193    1.403   .     A
C192   H209    1.083   .     S
C193   C194    1.404   1_556 A
C193   C26     1.474   1_556 S
C194   C195    1.399   .     A
C194   H210    1.083   .     S
C194   C193    1.404   1_554 A
C195   H211    1.083   .     S
C195   C190    1.407   1_554 A
C196   N201    1.357   .     A
C196   N197    1.359   1_556 A
N197   N198    1.333   .     A
N197   C196    1.359   1_554 A
N198   C199    1.359   1_554 A
C199   N200    1.357   .     A
C199   C202    1.483   .     S
C199   N198    1.359   1_556 A
N200   N201    1.331   .     A
C202   C203    1.406   .     A
C202   C207    1.407   1_556 A
C203   C204    1.395   .     A
C203   H212    1.083   .     S
C204   H213    1.083   .     S
C204   C205    1.403   1_556 A
C205   C206    1.405   .     A
C205   C204    1.403   1_554 A
C206   C207    1.400   .     A
C206   H214    1.083   .     S
C207   H215    1.083   .     S
C207   C202    1.407   1_554 A
C216   C221    1.409   .     A
C216   C222    1.486   .     S
C216   C217    1.406   1_554 A
C217   C218    1.390   .     A
C217   H234    1.083   .     S
C217   C216    1.406   1_556 A
C218   H235    1.083   .     S
C218   C219    1.401   1_556 A
C219   C220    1.408   .     A
C219   C218    1.401   1_554 A
C220   C221    1.407   .     A
C220   H236    1.083   .     S
C221   H237    1.083   .     S
C222   N223    1.362   .     A
C222   N227    1.356   1_554 A
N223   N224    1.338   .     A
N224   C225    1.362   .     A
C225   N226    1.356   1_554 A
C225   C228    1.487   1_554 S
N226   N227    1.327   .     A
N226   C225    1.356   1_556 A
N227   C222    1.356   1_556 A
C228   C229    1.406   .     A
C228   C225    1.487   1_556 S
C228   C233    1.409   1_556 A
C229   C230    1.391   .     A
C229   H238    1.083   .     S
C230   C231    1.403   .     A
C230   H239    1.083   .     S
C231   C232    1.407   1_556 A
C232   C233    1.407   .     A
C232   H240    1.083   .     S
C232   C231    1.407   1_554 A
C233   H241    1.083   .     S
C233   C228    1.409   1_554 A
C242   C247    1.406   .     A
C242   C248    1.483   .     S
C242   C243    1.408   1_556 A
C243   C244    1.402   .     A
C243   H260    1.083   .     S
C243   C242    1.408   1_554 A
C244   H261    1.083   .     S
C244   C245    1.405   1_554 A
C245   C246    1.403   .     A
C245   C244    1.405   1_556 A
C246   C247    1.394   .     A
C246   H262    1.083   .     S
C247   H263    1.083   .     S
C248   N249    1.358   .     A
C248   N253    1.361   1_556 A
N249   N250    1.328   .     A
N250   C251    1.358   .     A
C251   C254    1.479   .     S
C251   N252    1.360   1_556 A
N252   N253    1.333   .     A
N252   C251    1.360   1_554 A
N253   C248    1.361   1_554 A
C254   C259    1.404   .     A
C254   C255    1.407   1_556 A
C255   C256    1.403   .     A
C255   H264    1.083   .     S
C255   C254    1.407   1_554 A
C256   H265    1.083   .     S
C256   C257    1.405   1_554 A
C257   C258    1.404   .     A
C257   C256    1.405   1_556 A
C258   C259    1.392   .     A
C258   H266    1.084   .     S
C259   H267    1.083   .     S
C268   C269    1.407   .     A
C268   C274    1.483   .     S
C268   C273    1.409   1_554 A
C269   C270    1.395   .     A
C269   H286    1.083   .     S
C270   C271    1.399   .     A
C270   H287    1.084   .     S
C271   C272    1.401   1_554 A
C272   C273    1.401   .     A
C272   H288    1.084   .     S
C272   C271    1.401   1_556 A
C273   H289    1.083   .     S
C273   C268    1.409   1_556 A
C274   N279    1.358   .     A
C274   N275    1.359   1_554 A
N275   N276    1.333   .     A
N275   C274    1.359   1_556 A
N276   C277    1.360   1_556 A
C277   N278    1.357   .     A
C277   C280    1.483   .     S
C277   N276    1.360   1_554 A
N278   N279    1.330   .     A
C280   C281    1.407   .     A
C280   C285    1.407   1_554 A
C281   C282    1.397   .     A
C281   H290    1.083   .     S
C282   C283    1.404   .     A
C282   H291    1.083   .     S
C283   C284    1.404   1_554 A
C284   C285    1.399   .     A
C284   H292    1.083   .     S
C284   C283    1.404   1_556 A
C285   H293    1.083   .     S
C285   C280    1.407   1_556 A
