data_kag+N155+E225
_audit_creation_date              2025-01-21
_audit_creation_method            'Materials Studio'
_symmetry_space_group_name_H-M    'P1'
_symmetry_Int_Tables_number       1
_symmetry_cell_setting            triclinic
loop_
_symmetry_equiv_pos_as_xyz
  x,y,z
_cell_length_a                    41.1563
_cell_length_b                    43.7582
_cell_length_c                    19.2248
_cell_angle_alpha                 94.4545
_cell_angle_beta                  88.0870
_cell_angle_gamma                 125.3446
loop_
_atom_site_label
_atom_site_type_symbol
_atom_site_fract_x
_atom_site_fract_y
_atom_site_fract_z
_atom_site_U_iso_or_equiv
_atom_site_adp_type
_atom_site_occupancy
C0     C     0.45623   0.38739  -0.01172   0.00000  Uiso   1.00
Ho1    Ho    0.47442   0.45508  -0.00519   0.00000  Uiso   1.00
C2     C     0.52084   0.59974   0.98610   0.00000  Uiso   1.00
Ho3    Ho    0.49909   0.53138   0.99727   0.00000  Uiso   1.00
O4     O     0.46610   0.40798   0.04584   0.00000  Uiso   1.00
O5     O     0.45435   0.40260   0.93587   0.00000  Uiso   1.00
O6     O     0.47889   0.44154   0.09863   0.00000  Uiso   1.00
O7     O     0.49412   0.49770   0.08027   0.00000  Uiso   1.00
C8     C     0.49004   0.47245   0.12669   0.00000  Uiso   1.00
C9     C     0.48950   0.51134   0.86405   0.00000  Uiso   1.00
O10    O     0.53811   0.48146  -0.02306   0.00000  Uiso   1.00
O11    O     0.55815   0.54243   0.98190   0.00000  Uiso   1.00
O12    O     0.50913   0.57528   0.93439   0.00000  Uiso   1.00
O13    O     0.52139   0.58765   0.04442   0.00000  Uiso   1.00
O14    O     0.50236   0.54343   0.88702   0.00000  Uiso   1.00
O15    O     0.47424   0.48669   0.91645   0.00000  Uiso   1.00
O16    O     0.43534   0.50530   1.01335   0.00000  Uiso   1.00
O17    O     0.41542   0.44398   0.01629   0.00000  Uiso   1.00
C18    C     0.40853   0.46973   1.02125   0.00000  Uiso   1.00
C19    C     0.56553   0.51725  -0.02296   0.00000  Uiso   1.00
C20    C     0.08190   0.48621  -0.01682   0.00000  Uiso   1.00
Ho21   Ho    0.02881   0.50041  -0.01728   0.00000  Uiso   1.00
C22    C     0.91926   0.53220   0.96757   0.00000  Uiso   1.00
Ho23   Ho    0.97194   0.51792   0.97943   0.00000  Uiso   1.00
O24    O     0.06939   0.49375   0.03955   0.00000  Uiso   1.00
O25    O     0.06517   0.48552   0.92765   0.00000  Uiso   1.00
O26    O     0.04669   0.50372   0.08975   0.00000  Uiso   1.00
O27    O     1.00281   0.51533   0.06568   0.00000  Uiso   1.00
C28    C     0.02512   0.51254   0.11519   0.00000  Uiso   1.00
C29    C    -0.02290   0.50518   0.84644   0.00000  Uiso   1.00
O30    O     0.07135   0.56182  -0.02312   0.00000  Uiso   1.00
O31    O     0.02532   0.57555   0.97389   0.00000  Uiso   1.00
O32    O     0.93415   0.52451   0.91541   0.00000  Uiso   1.00
O33    O     0.93315   0.53282   0.02682   0.00000  Uiso   1.00
O34    O     0.95541   0.51417   0.87010   0.00000  Uiso   1.00
O35    O    -0.00165   0.50285   0.89792   0.00000  Uiso   1.00
O36    O     0.92942   0.45717   0.98648   0.00000  Uiso   1.00
O37    O     0.97465   0.44256  -0.00874   0.00000  Uiso   1.00
C38    C     0.93835   0.43345   0.99288   0.00000  Uiso   1.00
C39    C     0.06176   0.58539  -0.02401   0.00000  Uiso   1.00
C40    C     0.54084   0.93353   1.02311   0.00000  Uiso   1.00
Ho41   Ho    0.52017   0.97939   1.02182   0.00000  Uiso   1.00
C42    C     0.47587   0.07483   0.02683   0.00000  Uiso   1.00
Ho43   Ho    0.49725   0.02922   0.02205   0.00000  Uiso   1.00
O44    O     0.53670   0.94474   0.96639   0.00000  Uiso   1.00
O45    O     0.53404   0.94711   0.07834   0.00000  Uiso   1.00
O46    O     0.52863   0.96443   0.91539   0.00000  Uiso   1.00
O47    O     0.51081   0.00305   0.93625   0.00000  Uiso   1.00
C48    C     0.52051  -0.01625   0.88789   0.00000  Uiso   1.00
C49    C     0.49700   0.02407   0.15642   0.00000  Uiso   1.00
O50    O     0.45541   0.93635   1.01431   0.00000  Uiso   1.00
O51    O     0.43682   0.97670   0.01486   0.00000  Uiso   1.00
O52    O     0.48060   0.06268   0.08143   0.00000  Uiso   1.00
O53    O     0.48268   0.06250   0.96963   0.00000  Uiso   1.00
O54    O     0.48869   0.04345   0.12951   0.00000  Uiso   1.00
O55    O     0.50665   1.00531   0.10705   0.00000  Uiso   1.00
O56    O     0.56212   0.07230   0.02857   0.00000  Uiso   1.00
O57    O     0.58067   0.03185   1.02578   0.00000  Uiso   1.00
C58    C     0.58899   0.06541   0.02675   0.00000  Uiso   1.00
C59    C     0.42863   0.94313   1.01099   0.00000  Uiso   1.00
C60    C     0.49895   0.48183   0.20196   0.00000  Uiso   1.00
C61    C     0.49249   0.45440   0.24510   0.00000  Uiso   1.00
C62    C     0.50110   0.46309   0.31639   0.00000  Uiso   1.00
C63    C     0.51587   0.49937   0.34594   0.00000  Uiso   1.00
C64    C     0.52362   0.52708   0.30255   0.00000  Uiso   1.00
C65    C     0.51483   0.51834   0.23109   0.00000  Uiso   1.00
C66    C     0.49602   0.48287   0.46195   0.00000  Uiso   1.00
H67    H     0.51039   0.55492   0.75459   0.00000  Uiso   1.00
H68    H     0.50262   0.53498   0.63054   0.00000  Uiso   1.00
H69    H     0.45229   0.42146   0.68062   0.00000  Uiso   1.00
H70    H     0.45914   0.44126   0.80554   0.00000  Uiso   1.00
H71    H     0.53100   0.51372   0.55053   0.00000  Uiso   1.00
O72    O     0.47307   0.46393   0.57558   0.00000  Uiso   1.00
O73    O     0.52482   0.50914   0.41737   0.00000  Uiso   1.00
C74    C     0.48576   0.49965   0.78931   0.00000  Uiso   1.00
C75    C     0.49805   0.52580   0.73909   0.00000  Uiso   1.00
C76    C     0.49402   0.51445   0.66817   0.00000  Uiso   1.00
C77    C     0.47834   0.47679   0.64632   0.00000  Uiso   1.00
C78    C     0.46526   0.45065   0.69662   0.00000  Uiso   1.00
C79    C     0.46917   0.46197   0.76763   0.00000  Uiso   1.00
C80    C     0.50257   0.48913   0.53054   0.00000  Uiso   1.00
H81    H     0.49647   0.44163   0.34841   0.00000  Uiso   1.00
H82    H     0.53591   0.55534   0.32454   0.00000  Uiso   1.00
H83    H     0.48081   0.42618   0.22372   0.00000  Uiso   1.00
H84    H     0.46750   0.45834   0.44198   0.00000  Uiso   1.00
H85    H     0.52052   0.54009   0.19874   0.00000  Uiso   1.00
C86    C     0.98048   0.49804   0.77166   0.00000  Uiso   1.00
C87    C     0.96038   0.50359   0.72227   0.00000  Uiso   1.00
C88    C     0.96541   0.49859   0.65115   0.00000  Uiso   1.00
C89    C    -0.00906   0.48828   0.62851   0.00000  Uiso   1.00
C90    C     0.00933   0.48096   0.67797   0.00000  Uiso   1.00
C91    C     0.00447   0.48609   0.74915   0.00000  Uiso   1.00
C92    C     1.00287   0.51132   0.51631   0.00000  Uiso   1.00
H93    H     0.06209   0.50442   0.22000   0.00000  Uiso   1.00
H94    H     0.05637   0.51427   0.34565   0.00000  Uiso   1.00
H95    H     0.97825   0.54682   0.30595   0.00000  Uiso   1.00
H96    H     0.98400   0.53717   0.17985   0.00000  Uiso   1.00
H97    H     0.00177   0.48214   0.42438   0.00000  Uiso   1.00
O98    O     1.01059   0.53505   0.40631   0.00000  Uiso   1.00
O99    O    -0.00260   0.48366   0.55759   0.00000  Uiso   1.00
C100   C     0.02285   0.51942   0.19060   0.00000  Uiso   1.00
C101   C     0.04347   0.51340   0.23818   0.00000  Uiso   1.00
C102   C     0.03992   0.51869   0.30983   0.00000  Uiso   1.00
C103   C     1.01540   0.52978   0.33489   0.00000  Uiso   1.00
C104   C     0.99636   0.53735   0.28728   0.00000  Uiso   1.00
C105   C     0.99968   0.53183   0.21566   0.00000  Uiso   1.00
C106   C     0.00528   0.50741   0.44748   0.00000  Uiso   1.00
H107   H     0.94942   0.50276   0.61389   0.00000  Uiso   1.00
H108   H     0.02821   0.47209   0.66122   0.00000  Uiso   1.00
H109   H     0.94112   0.51215   0.73857   0.00000  Uiso   1.00
H110   H     1.00619   0.53650   0.53947   0.00000  Uiso   1.00
H111   H     0.01967   0.48100   0.78653   0.00000  Uiso   1.00
C112   C     0.49586   1.02099   0.23273   0.00000  Uiso   1.00
C113   C     0.50580   0.99885   0.26194   0.00000  Uiso   1.00
C114   C     0.50341   0.99529   0.33425   0.00000  Uiso   1.00
C115   C     0.49123   0.01405   0.37863   0.00000  Uiso   1.00
C116   C     0.48101   0.03570   0.34908   0.00000  Uiso   1.00
C117   C     0.48366   0.03949   0.27724   0.00000  Uiso   1.00
C118   C     0.51204   1.00641   0.48774   0.00000  Uiso   1.00
H119   H     0.50230   0.02308   0.81362   0.00000  Uiso   1.00
H120   H     0.50762   0.02947   0.68739   0.00000  Uiso   1.00
H121   H     0.54729   0.95723   0.66322   0.00000  Uiso   1.00
H122   H     0.54244   0.95107   0.78936   0.00000  Uiso   1.00
H123   H     0.47999  -0.00361   0.58013   0.00000  Uiso   1.00
O124   O     0.53271   0.99693   0.59292   0.00000  Uiso   1.00
O125   O     0.48528   0.00947   0.45074   0.00000  Uiso   1.00
C126   C     0.52173  -0.01357   0.81131   0.00000  Uiso   1.00
C127   C     0.51163   0.00818   0.78117   0.00000  Uiso   1.00
C128   C     0.51423   0.01146   0.70875   0.00000  Uiso   1.00
C129   C     0.52668   0.99265   0.66517   0.00000  Uiso   1.00
C130   C     0.53695   0.97128   0.69566   0.00000  Uiso   1.00
C131   C     0.53421   0.96786   0.76769   0.00000  Uiso   1.00
C132   C     0.50616   1.00016   0.55563   0.00000  Uiso   1.00
H133   H     0.50996   0.97708   0.35495   0.00000  Uiso   1.00
H134   H     0.47082   0.04965   0.38222   0.00000  Uiso   1.00
H135   H     0.51482   0.98392   0.22874   0.00000  Uiso   1.00
H136   H     0.53822   1.01028   0.46307   0.00000  Uiso   1.00
H137   H     0.47556   0.05656   0.25635   0.00000  Uiso   1.00
C138   C     0.36793   0.45849   1.03762   0.00000  Uiso   1.00
C139   C     0.33431   0.42449   1.00896   0.00000  Uiso   1.00
C140   C     0.29616   0.41588   1.02051   0.00000  Uiso   1.00
C141   C     0.29136   0.44095   0.06140   0.00000  Uiso   1.00
C142   C     0.32468   0.47405   0.09254   0.00000  Uiso   1.00
C143   C     0.36275   0.48290   0.08041   0.00000  Uiso   1.00
C144   C     0.24659   0.45090   1.01773   0.00000  Uiso   1.00
H145   H     0.12532   0.49021   0.09274   0.00000  Uiso   1.00
H146   H     0.17977   0.48248   0.08739   0.00000  Uiso   1.00
H147   H     0.16494   0.46148   0.86400   0.00000  Uiso   1.00
H148   H     0.11073   0.46947   0.86888   0.00000  Uiso   1.00
H149   H     0.19331   0.43778   0.06273   0.00000  Uiso   1.00
O150   O     0.20773   0.46728   0.96773   0.00000  Uiso   1.00
O151   O     0.25379   0.43402   0.06840   0.00000  Uiso   1.00
C152   C     0.11338   0.47978  -0.01862   0.00000  Uiso   1.00
C153   C     0.13316   0.48314   0.04275   0.00000  Uiso   1.00
C154   C     0.16407   0.47841   0.03968   0.00000  Uiso   1.00
C155   C     0.17534   0.46986   0.97505   0.00000  Uiso   1.00
C156   C     0.15591   0.46711   0.91413   0.00000  Uiso   1.00
C157   C     0.12508   0.47172   0.91713   0.00000  Uiso   1.00
C158   C     0.21431   0.45107   0.02076   0.00000  Uiso   1.00
H159   H     0.27046   0.39036   0.99596   0.00000  Uiso   1.00
H160   H     0.32111   0.49339   0.12459   0.00000  Uiso   1.00
H161   H     0.33766   0.40540   0.97552   0.00000  Uiso   1.00
H162   H     0.26725   0.46419   0.97511   0.00000  Uiso   1.00
H163   H     0.38822   0.50899   0.10401   0.00000  Uiso   1.00
C164   C     0.90489   0.39433   0.00566   0.00000  Uiso   1.00
C165   C     0.90979   0.36495   0.00197   0.00000  Uiso   1.00
C166   C     0.87836   0.32883   1.01926   0.00000  Uiso   1.00
C167   C     0.84169   0.32168   1.04094   0.00000  Uiso   1.00
C168   C     0.83695   0.35088   1.04482   0.00000  Uiso   1.00
C169   C     0.86784   0.38661   1.02638   0.00000  Uiso   1.00
C170   C     0.79953   0.25478   1.02395   0.00000  Uiso   1.00
H171   H     0.62157   0.13985   1.05806   0.00000  Uiso   1.00
H172   H     0.69013   0.19293   1.04340   0.00000  Uiso   1.00
H173   H     0.72147   0.11751   0.97064   0.00000  Uiso   1.00
H174   H     0.65206   0.06388   0.98341   0.00000  Uiso   1.00
H175   H     0.75238   0.22162   1.08979   0.00000  Uiso   1.00
O176   O     0.75175   0.18913   0.99772   0.00000  Uiso   1.00
O177   O     0.81084   0.28730   1.06576   0.00000  Uiso   1.00
C178   C     0.63144   0.09758   1.02321   0.00000  Uiso   1.00
C179   C     0.64313   0.13446   1.03991   0.00000  Uiso   1.00
C180   C     0.68270   0.16495   1.03237   0.00000  Uiso   1.00
C181   C     0.71181   0.15923   1.00888   0.00000  Uiso   1.00
C182   C     0.69992   0.12247   0.99097   0.00000  Uiso   1.00
C183   C     0.66029   0.09189   0.99859   0.00000  Uiso   1.00
C184   C     0.76711   0.22202   1.04151   0.00000  Uiso   1.00
H185   H     0.88301   0.30686   1.01812   0.00000  Uiso   1.00
H186   H     0.80916   0.34593   1.06284   0.00000  Uiso   1.00
H187   H     0.93802   0.37002  -0.01315   0.00000  Uiso   1.00
H188   H     0.81468   0.25603   0.97566   0.00000  Uiso   1.00
H189   H     0.86302   0.40852   1.03067   0.00000  Uiso   1.00
C190   C     0.88790   0.53807   0.95785   0.00000  Uiso   1.00
C191   C     0.87770   0.53956   0.88977   0.00000  Uiso   1.00
C192   C     0.84493   0.54017   0.87771   0.00000  Uiso   1.00
C193   C     0.82202   0.53997  -0.06692   0.00000  Uiso   1.00
C194   C     0.83280   0.53972   0.00186   0.00000  Uiso   1.00
C195   C     0.86573   0.53896   0.01407   0.00000  Uiso   1.00
C196   C     0.77490   0.55429  -0.03882   0.00000  Uiso   1.00
H197   H     0.59403   0.47406  -0.02804   0.00000  Uiso   1.00
H198   H     0.66316   0.49528  -0.02051   0.00000  Uiso   1.00
H199   H     0.70203   0.61048   0.98799   0.00000  Uiso   1.00
H200   H     0.63258   0.58954   0.98069   0.00000  Uiso   1.00
H201   H     0.72097   0.52798  -0.09297   0.00000  Uiso   1.00
O202   O     0.72795   0.56799  -0.00962   0.00000  Uiso   1.00
O203   O     0.78662   0.53564  -0.08362   0.00000  Uiso   1.00
C204   C     0.60766   0.53007  -0.02544   0.00000  Uiso   1.00
C205   C     0.61720   0.50393  -0.02628   0.00000  Uiso   1.00
C206   C     0.65683   0.51604  -0.02224   0.00000  Uiso   1.00
C207   C     0.68790   0.55466  -0.01788   0.00000  Uiso   1.00
C208   C     0.67847   0.58069   0.98330   0.00000  Uiso   1.00
C209   C     0.63882   0.56862   0.97892   0.00000  Uiso   1.00
C210   C     0.73973   0.54805  -0.05032   0.00000  Uiso   1.00
H211   H     0.83667   0.53993   0.82464   0.00000  Uiso   1.00
H212   H     0.81483   0.53836   0.04555   0.00000  Uiso   1.00
H213   H     0.89432   0.53902   0.84537   0.00000  Uiso   1.00
H214   H     0.79430   0.57457   1.00295   0.00000  Uiso   1.00
H215   H     0.87277   0.53741   0.06691   0.00000  Uiso   1.00
C216   C     0.38662   0.91073   0.99943   0.00000  Uiso   1.00
C217   C     0.35922   0.91545   0.96931   0.00000  Uiso   1.00
C218   C     0.32070   0.88434   0.95129   0.00000  Uiso   1.00
C219   C     0.30842   0.84826  -0.03477   0.00000  Uiso   1.00
C220   C     0.33535   0.84341  -0.00337   0.00000  Uiso   1.00
C221   C     0.37417   0.87439   0.01339   0.00000  Uiso   1.00
C222   C     0.24719   0.79388  -0.00419   0.00000  Uiso   1.00
H223   H     0.13850   0.62131  -0.07011   0.00000  Uiso   1.00
H224   H     0.19342   0.68786  -0.04531   0.00000  Uiso   1.00
H225   H     0.11297   0.70680   1.06458   0.00000  Uiso   1.00
H226   H     0.05779   0.64076   1.03882   0.00000  Uiso   1.00
H227   H     0.20430   0.75187  -0.07535   0.00000  Uiso   1.00
O228   O     0.18821   0.73889   0.03255   0.00000  Uiso   1.00
O229   O     0.27046   0.81741  -0.05698   0.00000  Uiso   1.00
C230   C     0.09395   0.62600  -0.01782   0.00000  Uiso   1.00
C231   C     0.13246   0.63987  -0.04184   0.00000  Uiso   1.00
C232   C     0.16367   0.67778  -0.02813   0.00000  Uiso   1.00
C233   C     0.15680   0.70216   0.01046   0.00000  Uiso   1.00
C234   C     0.11843   0.68839   1.03386   0.00000  Uiso   1.00
C235   C     0.08707   0.65080   1.01885   0.00000  Uiso   1.00
C236   C     0.21300   0.76085  -0.02071   0.00000  Uiso   1.00
H237   H     0.30033   0.88825   0.92606   0.00000  Uiso   1.00
H238   H     0.32654   0.81554   0.00620   0.00000  Uiso   1.00
H239   H     0.36797   0.94303   0.95742   0.00000  Uiso   1.00
H240   H     0.25599   0.80264   1.05051   0.00000  Uiso   1.00
H241   H     0.39459   0.86985   0.03638   0.00000  Uiso   1.00
C242   C     0.55211   0.90714   1.02490   0.00000  Uiso   1.00
C243   C     0.55877   0.89252   0.96285   0.00000  Uiso   1.00
C244   C     0.56873   0.86697   0.96493   0.00000  Uiso   1.00
C245   C     0.57159   0.85523   0.02934   0.00000  Uiso   1.00
C246   C     0.56606   0.87073   0.09106   0.00000  Uiso   1.00
C247   C     0.55605   0.89617   0.08904   0.00000  Uiso   1.00
C248   C     0.56231   0.79822   0.98586   0.00000  Uiso   1.00
H249   H     0.53428   0.65379   0.08732   0.00000  Uiso   1.00
H250   H     0.54479   0.71374   0.06965   0.00000  Uiso   1.00
H251   H     0.54217   0.69123   0.84680   0.00000  Uiso   1.00
H252   H     0.53069   0.63096   0.86413   0.00000  Uiso   1.00
H253   H     0.58665   0.77342   0.03081   0.00000  Uiso   1.00
O254   O     0.54746   0.73963   0.94185   0.00000  Uiso   1.00
O255   O     0.58121   0.82947   0.03454   0.00000  Uiso   1.00
C256   C     0.53166   0.63778  -0.02278   0.00000  Uiso   1.00
C257   C     0.53676   0.66208   0.03469   0.00000  Uiso   1.00
C258   C     0.54321   0.69658   0.02444   0.00000  Uiso   1.00
C259   C     0.54541   0.70754   0.95624   0.00000  Uiso   1.00
C260   C     0.54112   0.68349   0.89941   0.00000  Uiso   1.00
C261   C     0.53449   0.64910   0.90953   0.00000  Uiso   1.00
C262   C     0.56715   0.77082  -0.00955   0.00000  Uiso   1.00
H263   H     0.57444   0.85664   0.91643   0.00000  Uiso   1.00
H264   H     0.56881   0.86242   0.14092   0.00000  Uiso   1.00
H265   H     0.55622   0.90078   0.91279   0.00000  Uiso   1.00
H266   H     0.54206   0.79473   0.94600   0.00000  Uiso   1.00
H267   H     0.55116   0.90709   0.13769   0.00000  Uiso   1.00
C268   C     0.45016   0.35055  -0.01854   0.00000  Uiso   1.00
C269   C     0.45402   0.33527   0.03961   0.00000  Uiso   1.00
C270   C     0.45281   0.30254   0.03123   0.00000  Uiso   1.00
C271   C     0.44741   0.28443   0.96430   0.00000  Uiso   1.00
C272   C     0.44326   0.29961   0.90671   0.00000  Uiso   1.00
C273   C     0.44429   0.33212   0.91506   0.00000  Uiso   1.00
C274   C     0.43687   0.22849   1.00255   0.00000  Uiso   1.00
H275   H     0.46176   0.10294   0.91889   0.00000  Uiso   1.00
H276   H     0.44194   0.14596   0.92623   0.00000  Uiso   1.00
H277   H     0.44317   0.14858   0.15087   0.00000  Uiso   1.00
H278   H     0.46195   0.10454   0.14368   0.00000  Uiso   1.00
H279   H     0.46635   0.20631   0.95748   0.00000  Uiso   1.00
O280   O     0.43182   0.17709   1.04790   0.00000  Uiso   1.00
O281   O     0.45078   0.25435   0.95130   0.00000  Uiso   1.00
C282   C     0.46384   0.10080   1.03064   0.00000  Uiso   1.00
C283   C     0.45806   0.11293   0.96980   0.00000  Uiso   1.00
C284   C     0.44720   0.13798   0.97417   0.00000  Uiso   1.00
C285   C     0.44272   0.15191   1.03984   0.00000  Uiso   1.00
C286   C     0.44736   0.13881   0.10017   0.00000  Uiso   1.00
C287   C     0.45804   0.11370   0.09586   0.00000  Uiso   1.00
C288   C     0.44629   0.20396   0.99835   0.00000  Uiso   1.00
H289   H     0.45769   0.29238   0.07653   0.00000  Uiso   1.00
H290   H     0.43998   0.28646   0.85485   0.00000  Uiso   1.00
H291   H     0.45929   0.34929   0.09116   0.00000  Uiso   1.00
H292   H     0.41772   0.22732   1.04420   0.00000  Uiso   1.00
H293   H     0.44181   0.34351   0.86911   0.00000  Uiso   1.00
loop_
_geom_bond_atom_site_label_1
_geom_bond_atom_site_label_2
_geom_bond_distance
_geom_bond_site_symmetry_2
_ccdc_geom_bond_type
C0     O4      1.286   .     A
C0     C268    1.477   .     S
C0     O5      1.278   1_554 A
Ho1    O4      2.192   .     S
Ho1    O6      2.169   .     S
Ho1    O7      2.167   .     S
Ho1    O10     2.196   .     S
Ho1    O17     2.214   .     S
Ho1    O5      2.169   1_554 S
Ho1    O15     2.126   1_554 S
C2     O12     1.279   .     A
C2     O13     1.283   1_556 A
C2     C256    1.477   1_556 S
Ho3    O11     2.201   .     S
Ho3    O12     2.175   .     S
Ho3    O14     2.205   .     S
Ho3    O15     2.146   .     S
Ho3    O16     2.195   .     S
Ho3    O7      2.181   1_556 S
Ho3    O13     2.196   1_556 S
O5     C0      1.278   1_556 A
O5     Ho1     2.169   1_556 S
O6     C8      1.231   .     D
O7     C8      1.405   .     S
O7     Ho3     2.181   1_554 S
C8     C60     1.472   .     S
C9     O14     1.228   .     D
C9     O15     1.384   .     S
C9     C74     1.469   .     S
O10    C19     1.297   .     A
O11    C19     1.298   1_556 A
O13    C2      1.283   1_554 A
O13    Ho3     2.196   1_554 S
O15    Ho1     2.126   1_556 S
O16    C18     1.305   .     A
O17    C18     1.308   1_554 A
C18    C138    1.474   .     S
C18    O17     1.308   1_556 A
C19    C204    1.482   .     S
C19    O11     1.298   1_554 A
C20    O24     1.285   .     A
C20    C152    1.475   .     S
C20    O25     1.279   1_554 A
Ho21   O24     2.192   .     S
Ho21   O26     2.174   .     S
Ho21   O30     2.211   .     S
Ho21   O25     2.168   1_554 S
Ho21   O27     2.156   1_455 S
Ho21   O35     2.135   1_554 S
Ho21   O37     2.217   1_455 S
C22    O32     1.280   .     A
C22    C190    1.474   .     S
C22    O33     1.283   1_556 A
Ho23   O32     2.172   .     S
Ho23   O34     2.196   .     S
Ho23   O36     2.192   .     S
Ho23   O27     2.171   1_556 S
Ho23   O31     2.194   1_655 S
Ho23   O33     2.195   1_556 S
Ho23   O35     2.151   1_655 S
O25    C20     1.279   1_556 A
O25    Ho21    2.168   1_556 S
O26    C28     1.230   .     D
O27    Ho21    2.156   1_655 S
O27    Ho23    2.171   1_554 S
O27    C28     1.404   1_655 S
C28    C100    1.469   .     S
C28    O27     1.404   1_455 S
C29    O35     1.390   .     S
C29    O34     1.229   1_455 D
C29    C86     1.467   1_455 S
O30    C39     1.302   .     A
O31    Ho23    2.194   1_455 S
O31    C39     1.300   1_556 A
O33    C22     1.283   1_554 A
O33    Ho23    2.195   1_554 S
O34    C29     1.229   1_655 D
O35    Ho21    2.135   1_556 S
O35    Ho23    2.151   1_455 S
O36    C38     1.301   .     A
O37    Ho21    2.217   1_655 S
O37    C38     1.304   1_554 A
C38    O37     1.304   1_556 A
C38    C164    1.484   1_556 S
C39    C230    1.477   .     S
C39    O31     1.300   1_554 A
C40    O44     1.285   .     A
C40    C242    1.475   .     S
C40    O45     1.278   1_556 A
Ho41   O44     2.189   .     S
Ho41   O46     2.178   .     S
Ho41   O50     2.202   .     S
Ho41   O45     2.171   1_556 S
Ho41   O47     2.167   1_565 S
Ho41   O55     2.159   1_556 S
Ho41   O57     2.202   1_565 S
C42    O52     1.282   .     A
C42    O53     1.281   1_554 A
C42    C282    1.475   1_554 S
Ho43   O52     2.183   .     S
Ho43   O54     2.187   .     S
Ho43   O56     2.205   .     S
Ho43   O47     2.175   1_554 S
Ho43   O51     2.201   1_545 S
Ho43   O53     2.185   1_554 S
Ho43   O55     2.166   1_545 S
O45    C40     1.278   1_554 A
O45    Ho41    2.171   1_554 S
O46    C48     1.230   1_565 D
O47    C48     1.407   .     S
O47    Ho41    2.167   1_545 S
O47    Ho43    2.175   1_556 S
C48    C126    1.483   .     S
C48    O46     1.230   1_545 D
C49    O54     1.233   .     D
C49    O55     1.401   1_545 S
C49    C112    1.480   1_545 S
O50    C59     1.301   .     A
O51    Ho43    2.201   1_565 S
O51    C59     1.300   1_554 A
O53    C42     1.281   1_556 A
O53    Ho43    2.185   1_556 S
O55    Ho41    2.159   1_554 S
O55    Ho43    2.166   1_565 S
O55    C49     1.401   1_565 S
O56    C58     1.302   .     A
O57    Ho41    2.202   1_545 S
O57    C58     1.299   1_556 A
C58    O57     1.299   1_554 A
C58    C178    1.483   1_554 S
C59    C216    1.480   .     S
C59    O51     1.300   1_556 A
C60    C61     1.404   .     A
C60    C65     1.404   .     A
C61    C62     1.394   .     A
C61    H83     1.083   .     S
C62    C63     1.407   .     A
C62    H81     1.083   .     S
C63    C64     1.400   .     A
C63    O73     1.402   .     S
C64    C65     1.399   .     A
C64    H82     1.083   .     S
C65    H85     1.082   .     S
C66    O73     1.404   .     S
C66    C80     1.330   .     D
C66    H84     1.089   .     S
H67    C75     1.083   .     S
H68    C76     1.082   .     S
H69    C78     1.083   .     S
H70    C79     1.083   .     S
H71    C80     1.088   .     S
O72    C77     1.405   .     S
O72    C80     1.403   .     S
C74    C75     1.402   .     A
C74    C79     1.403   .     A
C75    C76     1.396   .     A
C76    C77     1.410   .     A
C77    C78     1.399   .     A
C78    C79     1.397   .     A
C86    C87     1.402   .     A
C86    C91     1.403   1_655 A
C86    C29     1.467   1_655 S
C87    C88     1.395   .     A
C87    H109    1.084   .     S
C88    H107    1.082   .     S
C88    C89     1.409   1_655 A
C89    C90     1.398   .     A
C89    O99     1.402   .     S
C89    C88     1.409   1_455 A
C90    C91     1.396   .     A
C90    H108    1.082   .     S
C91    H111    1.083   .     S
C91    C86     1.403   1_455 A
C92    H110    1.089   .     S
C92    O99     1.403   1_655 S
C92    C106    1.329   1_655 D
H93    C101    1.083   .     S
H94    C102    1.083   .     S
H95    C104    1.083   .     S
H96    C105    1.083   .     S
H97    C106    1.088   .     S
O98    C103    1.401   .     S
O98    C106    1.403   1_655 S
O99    C92     1.403   1_455 S
C100   C101    1.405   .     A
C100   C105    1.402   1_455 A
C101   C102    1.396   .     A
C102   C103    1.409   1_455 A
C103   C104    1.399   .     A
C103   C102    1.409   1_655 A
C104   C105    1.395   .     A
C105   C100    1.402   1_655 A
C106   C92     1.329   1_455 D
C106   O98     1.403   1_455 S
C112   C113    1.407   .     A
C112   C117    1.405   1_565 A
C112   C49     1.480   1_565 S
C113   C114    1.405   .     A
C113   H135    1.083   .     S
C114   H133    1.082   .     S
C114   C115    1.412   1_565 A
C115   C116    1.399   .     A
C115   O125    1.409   .     S
C115   C114    1.412   1_545 A
C116   C117    1.397   .     A
C116   H134    1.083   .     S
C117   H137    1.084   .     S
C117   C112    1.405   1_545 A
C118   C132    1.340   .     D
C118   H136    1.087   .     S
C118   O125    1.405   1_565 S
H119   C127    1.083   .     S
H120   C128    1.081   .     S
H121   C130    1.083   .     S
H122   C131    1.083   .     S
H123   C132    1.087   1_545 S
O124   C129    1.410   .     S
O124   C132    1.405   .     S
O125   C118    1.405   1_545 S
C126   C127    1.405   .     A
C126   C131    1.406   1_545 A
C127   C128    1.405   .     A
C128   C129    1.412   1_545 A
C129   C130    1.399   .     A
C129   C128    1.412   1_565 A
C130   C131    1.398   .     A
C131   C126    1.406   1_565 A
C132   H123    1.087   1_565 S
C138   C139    1.405   .     A
C138   C143    1.406   1_556 A
C139   C140    1.401   .     A
C139   H161    1.083   .     S
C140   H159    1.083   .     S
C140   C141    1.402   1_556 A
C141   C142    1.399   .     A
C141   O151    1.397   .     S
C141   C140    1.402   1_554 A
C142   C143    1.395   .     A
C142   H160    1.084   .     S
C143   H163    1.084   .     S
C143   C138    1.406   1_554 A
C144   H162    1.090   .     S
C144   O151    1.402   1_556 S
C144   C158    1.332   1_556 D
H145   C153    1.083   .     S
H146   C154    1.082   .     S
H147   C156    1.083   .     S
H148   C157    1.083   .     S
H149   C158    1.087   .     S
O150   C155    1.403   .     S
O150   C158    1.403   1_556 S
O151   C144    1.402   1_554 S
C152   C153    1.406   .     A
C152   C157    1.404   1_554 A
C153   C154    1.401   .     A
C154   C155    1.410   1_554 A
C155   C156    1.398   .     A
C155   C154    1.410   1_556 A
C156   C157    1.394   .     A
C157   C152    1.404   1_556 A
C158   C144    1.332   1_554 D
C158   O150    1.403   1_554 S
C164   C165    1.408   .     A
C164   C169    1.408   1_554 A
C164   C38     1.484   1_554 S
C165   H187    1.083   .     S
C165   C166    1.404   1_554 A
C166   C167    1.407   .     A
C166   H185    1.082   .     S
C166   C165    1.404   1_556 A
C167   C168    1.396   .     A
C167   O177    1.401   .     S
C168   C169    1.394   .     A
C168   H186    1.083   .     S
C169   H189    1.083   .     S
C169   C164    1.408   1_556 A
C170   O177    1.403   .     S
C170   C184    1.335   .     D
C170   H188    1.088   .     S
H171   C179    1.083   .     S
H172   C180    1.081   .     S
H173   C182    1.083   .     S
H174   C183    1.083   .     S
H175   C184    1.087   .     S
O176   C181    1.411   .     S
O176   C184    1.405   .     S
C178   C179    1.404   .     A
C178   C183    1.408   .     A
C178   C58     1.483   1_556 S
C179   C180    1.398   .     A
C180   C181    1.412   .     A
C181   C182    1.400   .     A
C182   C183    1.400   .     A
C190   C191    1.405   .     A
C190   C195    1.404   1_556 A
C191   C192    1.392   .     A
C191   H213    1.083   .     S
C192   H211    1.083   .     S
C192   C193    1.395   1_556 A
C193   C194    1.412   .     A
C193   O203    1.401   .     S
C193   C192    1.395   1_554 A
C194   C195    1.403   .     A
C194   H212    1.082   .     S
C195   H215    1.083   .     S
C195   C190    1.404   1_554 A
C196   O203    1.400   .     S
C196   C210    1.332   .     D
C196   H214    1.087   1_554 S
H197   C205    1.082   .     S
H198   C206    1.083   .     S
H199   C208    1.083   .     S
H200   C209    1.082   .     S
H201   C210    1.089   .     S
O202   C207    1.404   .     S
O202   C210    1.402   .     S
C204   C205    1.407   .     A
C204   C209    1.407   1_554 A
C205   C206    1.396   .     A
C206   C207    1.408   .     A
C207   C208    1.398   1_554 A
C208   C209    1.398   .     A
C208   C207    1.398   1_556 A
C209   C204    1.407   1_556 A
H214   C196    1.087   1_556 S
C216   C217    1.407   .     A
C216   C221    1.406   1_556 A
C217   C218    1.398   .     A
C217   H239    1.083   .     S
C218   H237    1.083   .     S
C218   C219    1.398   1_556 A
C219   C220    1.405   .     A
C219   O229    1.400   .     S
C219   C218    1.398   1_554 A
C220   C221    1.398   .     A
C220   H238    1.083   .     S
C221   H241    1.083   .     S
C221   C216    1.406   1_554 A
C222   O229    1.401   .     S
C222   C236    1.332   .     D
C222   H240    1.089   1_554 S
H223   C231    1.083   .     S
H224   C232    1.083   .     S
H225   C234    1.084   .     S
H226   C235    1.084   .     S
H227   C236    1.088   .     S
O228   C233    1.400   .     S
O228   C236    1.401   .     S
C230   C231    1.405   .     A
C230   C235    1.407   1_554 A
C231   C232    1.400   .     A
C232   C233    1.407   .     A
C233   C234    1.398   1_554 A
C234   C235    1.396   .     A
C234   C233    1.398   1_556 A
C235   C230    1.407   1_556 A
H240   C222    1.089   1_556 S
C242   C243    1.404   .     A
C242   C247    1.404   1_556 A
C243   C244    1.399   .     A
C243   H265    1.083   .     S
C244   H263    1.082   .     S
C244   C245    1.410   1_556 A
C245   C246    1.398   .     A
C245   O255    1.405   .     S
C245   C244    1.410   1_554 A
C246   C247    1.397   .     A
C246   H264    1.083   .     S
C247   H267    1.083   .     S
C247   C242    1.404   1_554 A
C248   H266    1.088   .     S
C248   O255    1.404   1_556 S
C248   C262    1.333   1_556 D
H249   C257    1.083   .     S
H250   C258    1.081   .     S
H251   C260    1.083   .     S
H252   C261    1.084   .     S
H253   C262    1.087   .     S
O254   C259    1.406   .     S
O254   C262    1.402   1_556 S
O255   C248    1.404   1_554 S
C256   C257    1.403   .     A
C256   C261    1.405   1_554 A
C256   C2      1.477   1_554 S
C257   C258    1.403   .     A
C258   C259    1.413   1_554 A
C259   C260    1.397   .     A
C259   C258    1.413   1_556 A
C260   C261    1.394   .     A
C261   C256    1.405   1_556 A
C262   C248    1.333   1_554 D
C262   O254    1.402   1_554 S
C268   C269    1.405   .     A
C268   C273    1.405   1_554 A
C269   C270    1.401   .     A
C269   H291    1.083   .     S
C270   H289    1.082   .     S
C270   C271    1.411   1_554 A
C271   C272    1.398   .     A
C271   O281    1.404   .     S
C271   C270    1.411   1_556 A
C272   C273    1.395   .     A
C272   H290    1.083   .     S
C273   H293    1.083   .     S
C273   C268    1.405   1_556 A
C274   O281    1.402   .     S
C274   C288    1.333   .     D
C274   H292    1.087   .     S
H275   C283    1.083   .     S
H276   C284    1.081   .     S
H277   C286    1.083   .     S
H278   C287    1.083   .     S
H279   C288    1.086   .     S
O280   C285    1.407   .     S
O280   C288    1.404   .     S
C282   C283    1.403   .     A
C282   C287    1.405   1_556 A
C282   C42     1.475   1_556 S
C283   C284    1.399   .     A
C284   C285    1.412   .     A
C285   C286    1.398   1_556 A
C286   C287    1.396   .     A
C286   C285    1.398   1_554 A
C287   C282    1.405   1_554 A
