data_kag+N505+E183
_audit_creation_date              2025-01-21
_audit_creation_method            'Materials Studio'
_symmetry_space_group_name_H-M    'P1'
_symmetry_Int_Tables_number       1
_symmetry_cell_setting            triclinic
loop_
_symmetry_equiv_pos_as_xyz
  x,y,z
_cell_length_a                    26.3544
_cell_length_b                    22.0960
_cell_length_c                    13.5970
_cell_angle_alpha                 120.3688
_cell_angle_beta                  67.0360
_cell_angle_gamma                 111.3129
loop_
_atom_site_label
_atom_site_type_symbol
_atom_site_fract_x
_atom_site_fract_y
_atom_site_fract_z
_atom_site_U_iso_or_equiv
_atom_site_adp_type
_atom_site_occupancy
Yb0    Yb    0.59724   0.50490   0.85166   0.00000  Uiso   1.00
Yb1    Yb    0.43045   0.47133   0.06824   0.00000  Uiso   1.00
C2     C     0.33442   0.46487   0.07414   0.00000  Uiso   1.00
O3     O     0.53668   0.45176   0.75120   0.00000  Uiso   1.00
O4     O     0.60624   0.53875   0.72500   0.00000  Uiso   1.00
O5     O     0.54976   0.58754  -0.01650   0.00000  Uiso   1.00
O6     O     0.46146   0.53425   0.96955   0.00000  Uiso   1.00
O7     O     0.66321   0.44843   0.73984   0.00000  Uiso   1.00
O8     O     0.67593   0.55355  -0.11065   0.00000  Uiso   1.00
O9     O     0.47805   0.52752   0.19394   0.00000  Uiso   1.00
O10    O     0.41259   0.43147   0.19369   0.00000  Uiso   1.00
C11    C     0.56144   0.49271   0.69654   0.00000  Uiso   1.00
O12    O     0.57719   0.45188  -0.03690   0.00000  Uiso   1.00
O13    O     0.49120   0.40672   0.94438   0.00000  Uiso   1.00
O14    O     0.35740   0.51472   0.15856   0.00000  Uiso   1.00
C15    C     0.50010   0.59028  -0.00511   0.00000  Uiso   1.00
O16    O     0.36263   0.41650   0.99205   0.00000  Uiso   1.00
C17    C     0.69648   0.49905   0.80379   0.00000  Uiso   1.00
C18    C     0.45211   0.48189   0.23939   0.00000  Uiso   1.00
C19    C     0.53040   0.40932  -0.02139   0.00000  Uiso   1.00
Yb20   Yb    0.06026   0.58772   0.87057   0.00000  Uiso   1.00
Yb21   Yb    1.01782   0.36011  -0.15132   0.00000  Uiso   1.00
C22    C     0.92477   0.27592  -0.09924   0.00000  Uiso   1.00
O23    O     0.08057   0.51283   0.69471   0.00000  Uiso   1.00
O24    O     1.02545   0.58621   0.75456   0.00000  Uiso   1.00
O25    O     0.98690   0.50743   0.91090   0.00000  Uiso   1.00
O26    O     0.96952   0.39124   0.78892   0.00000  Uiso   1.00
O27    O     0.12164   0.67681   0.85780   0.00000  Uiso   1.00
O28    O     0.05080   0.68797   0.01623   0.00000  Uiso   1.00
O29    O     0.98405   0.40193   0.03494   0.00000  Uiso   1.00
O30    O     0.05318   0.34807  -0.04505   0.00000  Uiso   1.00
C31    C     1.05025   0.53497   0.66947   0.00000  Uiso   1.00
O32    O     0.11053   0.57488  -0.04962   0.00000  Uiso   1.00
O33    O     0.06559   0.46616  -0.11272   0.00000  Uiso   1.00
O34    O     0.93362   0.34346  -0.03662   0.00000  Uiso   1.00
C35    C     0.96163   0.45519   0.83347   0.00000  Uiso   1.00
O36    O     0.96558   0.25492   0.81292   0.00000  Uiso   1.00
C37    C     0.09779   0.71758   0.96300   0.00000  Uiso   1.00
C38    C     0.02048   0.38400   0.05004   0.00000  Uiso   1.00
C39    C     0.10349   0.51191  -0.06249   0.00000  Uiso   1.00
Yb40   Yb    0.39905   1.08868   0.30437   0.00000  Uiso   1.00
Yb41   Yb    0.54337  -0.02437   0.97282   0.00000  Uiso   1.00
C42    C     0.64259   0.02739   0.97974   0.00000  Uiso   1.00
O43    O     0.39450   1.01910   0.37635   0.00000  Uiso   1.00
O44    O     0.41854   0.13233   0.47129   0.00000  Uiso   1.00
O45    O     0.48871   0.10159   0.21962   0.00000  Uiso   1.00
O46    O     0.54028   0.08857   0.03853   0.00000  Uiso   1.00
O47    O     0.31008   1.06155   0.34702   0.00000  Uiso   1.00
O48    O     0.36124   1.03377   1.16396   0.00000  Uiso   1.00
O49    O     0.53761   0.04708   0.91590   0.00000  Uiso   1.00
O50    O     0.50317   0.93498   0.83383   0.00000  Uiso   1.00
C51    C     0.41060   0.07084   0.46648   0.00000  Uiso   1.00
O52    O     0.40200   0.97661   1.25491   0.00000  Uiso   1.00
O53    O     0.46188   0.97580   1.09087   0.00000  Uiso   1.00
O54    O     0.62835  -0.01062   0.88163   0.00000  Uiso   1.00
C55    C     0.51238   0.12624   0.14194   0.00000  Uiso   1.00
O56    O     0.60282   0.03279   0.07492   0.00000  Uiso   1.00
C57    C     0.31204   1.03002   0.23598   0.00000  Uiso   1.00
C58    C     0.51132   0.99686   0.83960   0.00000  Uiso   1.00
C59    C     0.43642   0.94453   1.15818   0.00000  Uiso   1.00
C60    C     0.46974   0.48524   0.33306   0.00000  Uiso   1.00
C61    C     0.52442   0.51600   0.46863   0.00000  Uiso   1.00
C62    C     0.48377   0.45773   0.47379   0.00000  Uiso   1.00
S63    S     0.57099   0.55166   0.55141   0.00000  Uiso   1.00
S64    S     0.48187   0.42448   0.56437   0.00000  Uiso   1.00
S65    S     0.52679   0.54967   0.37888   0.00000  Uiso   1.00
S66    S     0.43779   0.42180   0.38880   0.00000  Uiso   1.00
C67    C     0.53949   0.48897   0.60833   0.00000  Uiso   1.00
C68    C     1.04357   0.50263   0.55008   0.00000  Uiso   1.00
C69    C     0.05467   0.43550   0.33781   0.00000  Uiso   1.00
C70    C     1.01123   0.46869   0.38106   0.00000  Uiso   1.00
S71    S     0.07497   0.38611   0.19016   0.00000  Uiso   1.00
S72    S     0.97937   0.45852   0.28622   0.00000  Uiso   1.00
S73    S     0.08689   0.44712   0.43392   0.00000  Uiso   1.00
S74    S     0.99211   0.52046   0.52722   0.00000  Uiso   1.00
C75    C     0.02402   0.40585   0.16852   0.00000  Uiso   1.00
C76    C     0.42327   0.05857   0.54972   0.00000  Uiso   1.00
C77    C     0.46590   0.07066   0.69009   0.00000  Uiso   1.00
C78    C     0.44416   0.99960   0.63572   0.00000  Uiso   1.00
S79    S     0.50153   0.09761   0.79000   0.00000  Uiso   1.00
S80    S     0.45329   0.94191   0.67161   0.00000  Uiso   1.00
S81    S     0.45808   0.12808   0.65177   0.00000  Uiso   1.00
S82    S     0.41079   0.97218   0.53188   0.00000  Uiso   1.00
C83    C     0.49046   1.01094   0.76957   0.00000  Uiso   1.00
C84    C     0.28099   0.46554   0.06480   0.00000  Uiso   1.00
C85    C     0.20896   0.44686  -0.02429   0.00000  Uiso   1.00
C86    C     0.20367   0.50746   0.07765   0.00000  Uiso   1.00
S87    S     0.16993   0.42261  -0.11691   0.00000  Uiso   1.00
S88    S     0.15732   0.55484   0.10717   0.00000  Uiso   1.00
S89    S     0.25833   0.40256  -0.05932   0.00000  Uiso   1.00
S90    S     0.24751   0.53572   0.16357   0.00000  Uiso   1.00
C91    C     0.13864   0.49492  -0.02263   0.00000  Uiso   1.00
C92    C     0.87270   0.22588  -0.07343   0.00000  Uiso   1.00
C93    C     0.77890   0.17124   0.01300   0.00000  Uiso   1.00
C94    C     0.79778   0.11906   0.90639   0.00000  Uiso   1.00
S95    S     0.71211   0.15231   0.09209   0.00000  Uiso   1.00
S96    S     0.75352   0.03902   0.85689   0.00000  Uiso   1.00
S97    S     0.82151   0.25388   0.05582   0.00000  Uiso   1.00
S98    S     0.86286   0.13859   0.82341   0.00000  Uiso   1.00
C99    C     0.70037   0.06787   0.98119   0.00000  Uiso   1.00
C100   C     0.91865   0.46749   0.80495   0.00000  Uiso   1.00
C101   C     0.84326   0.51698   0.82762   0.00000  Uiso   1.00
C102   C     0.83551   0.44837   0.74454   0.00000  Uiso   1.00
S103   S     0.79453   0.56540   0.87572   0.00000  Uiso   1.00
S104   S     0.77699   0.41516  -0.30636   0.00000  Uiso   1.00
S105   S     0.89814   0.54846   0.88772   0.00000  Uiso   1.00
S106   S     0.88186   0.39815  -0.29453   0.00000  Uiso   1.00
C107   C     0.75388   0.49420   0.78668   0.00000  Uiso   1.00
C108   C     0.26180   0.98690   0.19134   0.00000  Uiso   1.00
C109   C     0.17388   0.89847   0.16292   0.00000  Uiso   1.00
C110   C     0.20511   0.89538   1.05466   0.00000  Uiso   1.00
S111   S     0.11408   0.83490   0.17158   0.00000  Uiso   1.00
S112   S     0.18300   0.82869   0.93503   0.00000  Uiso   1.00
S113   S     0.20064   0.95919   0.28065   0.00000  Uiso   1.00
S114   S     0.26861   0.95166   1.04287   0.00000  Uiso   1.00
C115   C     0.12648   0.79220   1.02061   0.00000  Uiso   1.00
C116   C     0.44910   0.87803   1.13351   0.00000  Uiso   1.00
C117   C     0.49625   0.78192   1.06636   0.00000  Uiso   1.00
C118   C     0.44087   0.75781   1.10955   0.00000  Uiso   1.00
S119   S     0.54166   0.72746   1.00931   0.00000  Uiso   1.00
S120   S     0.41997   0.67319   0.09981   0.00000  Uiso   1.00
S121   S     0.51679   0.86453   1.06896   0.00000  Uiso   1.00
S122   S     0.39575   0.81306   0.16759   0.00000  Uiso   1.00
C123   C     0.48791   0.66003   1.03442   0.00000  Uiso   1.00
C124   C     0.52135   0.36298   0.03482   0.00000  Uiso   1.00
C125   C     0.48439   0.26501   1.09560   0.00000  Uiso   1.00
C126   C     0.53393   0.30046   0.12621   0.00000  Uiso   1.00
S127   S     0.45060   0.18794   1.11172   0.00000  Uiso   1.00
S128   S     0.55952   0.26479   0.17713   0.00000  Uiso   1.00
S129   S     0.46261   0.29470   1.02922   0.00000  Uiso   1.00
S130   S     0.57084   0.37310   0.09772   0.00000  Uiso   1.00
C131   C     0.50369   0.19278   0.15976   0.00000  Uiso   1.00
loop_
_geom_bond_atom_site_label_1
_geom_bond_atom_site_label_2
_geom_bond_distance
_geom_bond_site_symmetry_2
_ccdc_geom_bond_type
Yb0    O3      2.124   .     S
Yb0    O4      2.106   .     S
Yb0    O7      2.118   .     S
Yb0    O5      2.171   1_556 S
Yb0    O8      2.091   1_556 S
Yb0    O12     2.161   1_556 S
Yb1    O9      2.105   .     S
Yb1    O10     2.121   .     S
Yb1    O14     2.107   .     S
Yb1    O6      2.146   1_554 S
Yb1    O13     2.136   1_554 S
Yb1    O16     2.082   1_554 S
C2     O14     1.295   .     A
C2     C84     1.468   .     S
C2     O16     1.290   1_554 A
O3     C11     1.292   .     A
O4     C11     1.290   .     A
O5     C15     1.277   .     A
O5     Yb0     2.171   1_554 S
O6     Yb1     2.146   1_556 S
O6     C15     1.271   1_556 A
O7     C17     1.294   .     A
O8     Yb0     2.091   1_554 S
O8     C17     1.289   1_554 A
O9     C18     1.290   .     A
O10    C18     1.294   .     A
C11    C67     1.479   .     S
O12    C19     1.267   .     A
O12    Yb0     2.161   1_554 S
O13    Yb1     2.136   1_556 S
O13    C19     1.262   1_556 A
C15    O6      1.271   1_554 A
C15    C123    1.468   1_554 S
O16    Yb1     2.082   1_556 S
O16    C2      1.290   1_556 A
C17    C107    1.474   .     S
C17    O8      1.289   1_556 A
C18    C60     1.478   .     S
C19    C124    1.470   .     S
C19    O13     1.262   1_554 A
Yb20   O23     2.094   .     S
Yb20   O27     2.082   .     S
Yb20   O24     2.094   1_455 S
Yb20   O25     2.202   1_455 S
Yb20   O28     2.115   1_556 S
Yb20   O32     2.172   1_556 S
Yb21   O29     2.129   .     S
Yb21   O34     2.186   .     S
Yb21   O26     2.182   1_554 S
Yb21   O30     2.156   1_655 S
Yb21   O33     2.116   1_655 S
Yb21   O36     2.142   1_554 S
C22    O34     1.274   .     A
C22    C92     1.464   .     S
C22    O36     1.264   1_554 A
O23    C31     1.290   1_455 A
O24    C31     1.293   .     A
O24    Yb20    2.094   1_655 S
O25    C35     1.282   .     A
O25    Yb20    2.202   1_655 S
O26    C35     1.287   .     A
O26    Yb21    2.182   1_556 S
O27    C37     1.288   .     A
O28    Yb20    2.115   1_554 S
O28    C37     1.295   1_554 A
O29    C38     1.278   1_655 A
O30    C38     1.279   .     A
O30    Yb21    2.156   1_455 S
C31    C68     1.461   .     S
C31    O23     1.290   1_655 A
O32    C39     1.262   .     A
O32    Yb20    2.172   1_554 S
O33    C39     1.260   .     A
O33    Yb21    2.116   1_455 S
C35    C100    1.476   .     S
O36    Yb21    2.142   1_556 S
O36    C22     1.264   1_556 A
C37    C115    1.468   .     S
C37    O28     1.295   1_556 A
C38    C75     1.461   .     S
C38    O29     1.278   1_455 A
C39    C91     1.464   .     S
Yb40   O43     2.152   .     S
Yb40   O47     2.112   .     S
Yb40   O44     2.164   1_565 S
Yb40   O45     2.170   1_565 S
Yb40   O48     2.091   1_554 S
Yb40   O52     2.237   1_554 S
Yb41   O49     2.148   .     S
Yb41   O54     2.089   .     S
Yb41   O46     2.206   1_556 S
Yb41   O50     2.158   1_545 S
Yb41   O53     2.121   1_545 S
Yb41   O56     2.112   1_556 S
C42    O54     1.286   .     A
C42    C99     1.461   .     S
C42    O56     1.290   1_556 A
O43    C51     1.275   1_565 A
O44    C51     1.268   .     A
O44    Yb40    2.164   1_545 S
O45    C55     1.274   .     A
O45    Yb40    2.170   1_545 S
O46    C55     1.290   .     A
O46    Yb41    2.206   1_554 S
O47    C57     1.292   .     A
O48    Yb40    2.091   1_556 S
O48    C57     1.289   1_556 A
O49    C58     1.275   1_545 A
O50    C58     1.270   .     A
O50    Yb41    2.158   1_565 S
C51    C76     1.462   .     S
C51    O43     1.275   1_545 A
O52    C59     1.284   .     A
O52    Yb40    2.237   1_556 S
O53    C59     1.260   .     A
O53    Yb41    2.121   1_565 S
C55    C131    1.454   .     S
O56    Yb41    2.112   1_554 S
O56    C42     1.290   1_554 A
C57    C108    1.468   .     S
C57    O48     1.289   1_554 A
C58    C83     1.462   .     S
C58    O49     1.275   1_565 A
C59    C116    1.468   .     S
C60    S65     1.719   .     A
C60    S66     1.722   .     A
C61    C62     1.356   .     A
C61    S63     1.695   .     A
C61    S65     1.695   .     A
C62    S64     1.703   .     A
C62    S66     1.703   .     A
S63    C67     1.719   .     A
S64    C67     1.723   .     A
C68    S74     1.712   .     A
C68    S73     1.719   1_655 A
C69    S71     1.697   .     A
C69    S73     1.692   .     A
C69    C70     1.358   1_455 A
C70    S72     1.683   .     A
C70    S74     1.688   .     A
C70    C69     1.358   1_655 A
S71    C75     1.716   .     A
S72    C75     1.715   1_655 A
S73    C68     1.719   1_455 A
C75    S72     1.715   1_455 A
C76    S81     1.715   .     A
C76    S82     1.717   1_545 A
C77    S79     1.689   .     A
C77    S81     1.693   .     A
C77    C78     1.358   1_545 A
C78    S80     1.692   .     A
C78    S82     1.688   .     A
C78    C77     1.358   1_565 A
S79    C83     1.717   1_545 A
S80    C83     1.714   .     A
S82    C76     1.717   1_565 A
C83    S79     1.717   1_565 A
C84    S89     1.717   .     A
C84    S90     1.718   .     A
C85    C86     1.357   .     A
C85    S87     1.691   .     A
C85    S89     1.688   .     A
C86    S88     1.695   .     A
C86    S90     1.697   .     A
S87    C91     1.714   .     A
S88    C91     1.718   .     A
C92    S97     1.717   .     A
C92    S98     1.715   1_554 A
C93    S95     1.695   .     A
C93    S97     1.697   .     A
C93    C94     1.357   1_554 A
C94    S96     1.688   .     A
C94    S98     1.687   .     A
C94    C93     1.357   1_556 A
S95    C99     1.718   1_554 A
S96    C99     1.714   .     A
S98    C92     1.715   1_556 A
C99    S95     1.718   1_556 A
C100   S105    1.718   .     A
C100   S106    1.722   1_556 A
C101   C102    1.356   .     A
C101   S103    1.690   .     A
C101   S105    1.691   .     A
C102   S104    1.701   1_556 A
C102   S106    1.699   1_556 A
S103   C107    1.718   .     A
S104   C102    1.701   1_554 A
S104   C107    1.720   1_554 A
S106   C100    1.722   1_554 A
S106   C102    1.699   1_554 A
C107   S104    1.720   1_556 A
C108   S113    1.719   .     A
C108   S114    1.716   1_554 A
C109   S111    1.698   .     A
C109   S113    1.697   .     A
C109   C110    1.357   1_554 A
C110   S112    1.688   .     A
C110   S114    1.689   .     A
C110   C109    1.357   1_556 A
S111   C115    1.718   1_554 A
S112   C115    1.716   .     A
S114   C108    1.716   1_556 A
C115   S111    1.718   1_556 A
C116   S121    1.715   .     A
C116   S122    1.717   1_556 A
C117   C118    1.357   .     A
C117   S119    1.691   .     A
C117   S121    1.690   .     A
C118   S120    1.695   1_556 A
C118   S122    1.696   1_556 A
S119   C123    1.716   .     A
S120   C118    1.695   1_554 A
S120   C123    1.719   1_554 A
S122   C116    1.717   1_554 A
S122   C118    1.696   1_554 A
C123   S120    1.719   1_556 A
C123   C15     1.468   1_556 S
C124   S130    1.717   .     A
C124   S129    1.719   1_554 A
C125   S127    1.692   .     A
C125   S129    1.688   .     A
C125   C126    1.357   1_556 A
C126   S128    1.691   .     A
C126   S130    1.695   .     A
C126   C125    1.357   1_554 A
S127   C131    1.712   1_556 A
S128   C131    1.715   .     A
S129   C124    1.719   1_556 A
C131   S127    1.712   1_554 A
