data_kag+N248+E8
_audit_creation_date              2025-01-21
_audit_creation_method            'Materials Studio'
_symmetry_space_group_name_H-M    'P1'
_symmetry_Int_Tables_number       1
_symmetry_cell_setting            triclinic
loop_
_symmetry_equiv_pos_as_xyz
  x,y,z
_cell_length_a                    28.3688
_cell_length_b                    30.6089
_cell_length_c                    13.2867
_cell_angle_alpha                 95.2185
_cell_angle_beta                  87.1576
_cell_angle_gamma                 128.0581
loop_
_atom_site_label
_atom_site_type_symbol
_atom_site_fract_x
_atom_site_fract_y
_atom_site_fract_z
_atom_site_U_iso_or_equiv
_atom_site_adp_type
_atom_site_occupancy
O0     O     0.51152   0.54157   0.79038   0.00000  Uiso   1.00
Yb1    Yb    0.47950   0.43957   0.92336   0.00000  Uiso   1.00
C2     C     0.45186   0.34249  -0.08096   0.00000  Uiso   1.00
Yb3    Yb    0.52488   0.55165  -0.04768   0.00000  Uiso   1.00
O4     O     0.47486   0.45004   0.76594   0.00000  Uiso   1.00
C5     C     0.41208   0.50437  -0.02477   0.00000  Uiso   1.00
C6     C     0.49152   0.49647   0.73279   0.00000  Uiso   1.00
O7     O     0.50494   0.60872   0.98054   0.00000  Uiso   1.00
C8     C     0.55995   0.65178   0.97558   0.00000  Uiso   1.00
O9     O     0.55189   0.43780   0.88587   0.00000  Uiso   1.00
O10    O     0.57298   0.51937  -0.07518   0.00000  Uiso   1.00
O11    O     0.49538   0.45070   0.08494   0.00000  Uiso   1.00
O12    O     0.59672   0.64082  -0.04057   0.00000  Uiso   1.00
O13    O     0.52783   0.54075   0.11012   0.00000  Uiso   1.00
C14    C     0.59281   0.48756   0.89891   0.00000  Uiso   1.00
C15    C     0.51328   0.49509   0.14299   0.00000  Uiso   1.00
O16    O     0.50353   0.38616  -0.10189   0.00000  Uiso   1.00
O17    O     0.41093   0.34868   0.92526   0.00000  Uiso   1.00
O18    O     0.45280   0.55476  -0.02055   0.00000  Uiso   1.00
O19    O     0.43212   0.47255   0.95556   0.00000  Uiso   1.00
O20    O     0.97407   0.51640   0.88936   0.00000  Uiso   1.00
Yb21   Yb    0.03884   0.49310   0.05718   0.00000  Uiso   1.00
C22    C     0.12456   0.48504   0.05994   0.00000  Uiso   1.00
Yb23   Yb    0.95899   0.51888   1.04991   0.00000  Uiso   1.00
O24    O     0.04079   0.49773   0.89557   0.00000  Uiso   1.00
C25    C     0.88149   0.41201   0.03995   0.00000  Uiso   1.00
C26    C     1.00951   0.50694   0.84638   0.00000  Uiso   1.00
O27    O     0.86933   0.48960   1.03211   0.00000  Uiso   1.00
C28    C     0.88482   0.53899   1.03723   0.00000  Uiso   1.00
O29    O     0.12671   0.57032   1.07638   0.00000  Uiso   1.00
O30    O     0.05238   0.57333   0.06795   0.00000  Uiso   1.00
O31    O     0.02319   0.49464   0.21769   0.00000  Uiso   1.00
O32    O     0.94056   0.57805   0.05314   0.00000  Uiso   1.00
O33    O     0.95733   0.51486   0.21182   0.00000  Uiso   1.00
C34    C     0.11348   0.60166   1.08016   0.00000  Uiso   1.00
C35    C    -0.01183   0.50485   0.26067   0.00000  Uiso   1.00
O36    O     0.13053   0.53003   0.07126   0.00000  Uiso   1.00
O37    O     0.06982   0.44144   1.04995   0.00000  Uiso   1.00
O38    O     0.86938   0.44400   0.03444   0.00000  Uiso   1.00
O39    O     0.94313   0.43808   1.04484   0.00000  Uiso   1.00
O40    O     0.47531   0.02444   0.14610   0.00000  Uiso   1.00
Yb41   Yb    0.51859   0.96339  -0.01175   0.00000  Uiso   1.00
C42    C     0.54110   0.89485   1.00016   0.00000  Uiso   1.00
Yb43   Yb    0.47977   0.02913   0.98418   0.00000  Uiso   1.00
O44    O     0.51002   0.97389   0.14936   0.00000  Uiso   1.00
C45    C     0.59304   0.10820   0.00205   0.00000  Uiso   1.00
C46    C     0.49110   0.00001   0.19399   0.00000  Uiso   1.00
O47    O     0.50115   0.10968  -0.00871   0.00000  Uiso   1.00
C48    C     0.44631   0.08929  -0.02116   0.00000  Uiso   1.00
O49    O     0.43885   0.87889  -0.00181   0.00000  Uiso   1.00
O50    O     0.43045   0.94268   0.96828   0.00000  Uiso   1.00
O51    O     0.51859   0.96439   0.82552   0.00000  Uiso   1.00
O52    O     0.40930   0.03615   0.97070   0.00000  Uiso   1.00
O53    O     0.49211   0.02218   0.82312   0.00000  Uiso   1.00
C54    C     0.40374   0.88938  -0.00510   0.00000  Uiso   1.00
C55    C     0.50662   0.99224   0.77818   0.00000  Uiso   1.00
O56    O     0.48856   0.88022   0.98777   0.00000  Uiso   1.00
O57    O     0.58323   0.94755   0.00149   0.00000  Uiso   1.00
O58    O     0.55498   0.11536   1.00028   0.00000  Uiso   1.00
O59    O     0.57009   0.05215  -0.00632   0.00000  Uiso   1.00
C60    C     0.49242   0.50955   0.41873   0.00000  Uiso   1.00
C61    C     0.51178   0.48160   0.45715   0.00000  Uiso   1.00
N62    N     0.53292   0.46017   0.39262   0.00000  Uiso   1.00
C63    C     0.53474   0.46469   0.29135   0.00000  Uiso   1.00
C64    C     0.51544   0.49266   0.25257   0.00000  Uiso   1.00
N65    N     0.49458   0.51436   0.31756   0.00000  Uiso   1.00
N66    N     0.47127   0.53095   0.48312   0.00000  Uiso   1.00
C67    C     0.46972   0.52668   0.58449   0.00000  Uiso   1.00
C68    C     0.48917   0.49889   0.62333   0.00000  Uiso   1.00
N69    N     0.50977   0.47696   0.55833   0.00000  Uiso   1.00
H70    H     0.55113   0.44675   0.24151   0.00000  Uiso   1.00
H71    H     0.45325   0.54457   0.63408   0.00000  Uiso   1.00
C72    C     0.97935   0.50958   0.57961   0.00000  Uiso   1.00
C73    C     0.01859   0.50234   0.52741   0.00000  Uiso   1.00
N74    N     0.05480   0.49737   0.57996   0.00000  Uiso   1.00
C75    C     0.05337   0.49921   0.68264   0.00000  Uiso   1.00
C76    C     0.01389   0.50629   0.73541   0.00000  Uiso   1.00
N77    N     0.97789   0.51142   0.68206   0.00000  Uiso   1.00
N78    N     0.94327   0.51463   0.52714   0.00000  Uiso   1.00
C79    C     0.94480   0.51292   0.42443   0.00000  Uiso   1.00
C80    C     0.98413   0.50575   0.37169   0.00000  Uiso   1.00
N81    N     0.02015   0.50069   0.42505   0.00000  Uiso   1.00
H82    H     0.08263   0.49498   0.72224   0.00000  Uiso   1.00
H83    H     0.91576   0.51742   0.38483   0.00000  Uiso   1.00
C84    C     0.50932  -0.01698   0.45877   0.00000  Uiso   1.00
C85    C     0.48645   1.00759   0.51349   0.00000  Uiso   1.00
N86    N     0.46476   1.02861   0.46333   0.00000  Uiso   1.00
C87    C     0.46511   1.02645   0.36054   0.00000  Uiso   1.00
C88    C     0.48815   0.00201   0.30525   0.00000  Uiso   1.00
N89    N     0.50968  -0.01916   0.35629   0.00000  Uiso   1.00
N90    N     0.53123  -0.03785   0.50898   0.00000  Uiso   1.00
C91    C     0.53106  -0.03543   0.61176   0.00000  Uiso   1.00
C92    C     0.50842  -0.01062   0.66693   0.00000  Uiso   1.00
N93    N     0.48668   1.01036   0.61598   0.00000  Uiso   1.00
H94    H     0.44763   1.04375   0.32284   0.00000  Uiso   1.00
H95    H     0.54858  -0.05250   0.64990   0.00000  Uiso   1.00
C96    C     0.28949   0.51231   1.03207   0.00000  Uiso   1.00
C97    C     0.23686   0.45713   0.01928   0.00000  Uiso   1.00
N98    N     0.24222   0.41592  -0.00562   0.00000  Uiso   1.00
C99    C     0.29751   0.42808  -0.01933   0.00000  Uiso   1.00
C100   C     0.34975   0.48408  -0.00821   0.00000  Uiso   1.00
N101   N     0.34308   0.52395   1.01738   0.00000  Uiso   1.00
N102   N     0.28700   0.55439   1.05790   0.00000  Uiso   1.00
C103   C     0.23405   0.54443   1.07175   0.00000  Uiso   1.00
C104   C     0.17997   0.48977   0.05630   0.00000  Uiso   1.00
N105   N     0.18222   0.44647   0.03064   0.00000  Uiso   1.00
H106   H     0.30050   0.39471  -0.03919   0.00000  Uiso   1.00
H107   H     0.23475   0.58000   1.09149   0.00000  Uiso   1.00
C108   C     0.77103   0.25638   0.01719   0.00000  Uiso   1.00
C109   C     0.72617   0.24992   1.08086   0.00000  Uiso   1.00
N110   N     0.73659   0.29487   1.13604   0.00000  Uiso   1.00
C111   C     0.78912   0.34601   1.12852   0.00000  Uiso   1.00
C112   C     0.83251   0.35386   0.06032   0.00000  Uiso   1.00
N113   N     0.82348   0.30861   0.00739   0.00000  Uiso   1.00
N114   N     0.75805   0.21152  -0.04264   0.00000  Uiso   1.00
C115   C     0.70209   0.16132  -0.04369   0.00000  Uiso   1.00
C116   C     0.65661   0.15635   1.01517   0.00000  Uiso   1.00
N117   N     0.67032   0.20066   1.07709   0.00000  Uiso   1.00
H118   H     0.79711   0.38213   1.17084   0.00000  Uiso   1.00
H119   H     0.69254   0.12686  -0.09444   0.00000  Uiso   1.00
C120   C     0.75152   0.50884   0.92687   0.00000  Uiso   1.00
C121   C     0.74891   0.55045  -0.02703   0.00000  Uiso   1.00
N122   N     0.79412   0.59084   0.03693   0.00000  Uiso   1.00
C123   C     0.84092   0.59080   0.05726   0.00000  Uiso   1.00
C124   C     0.84094   0.54709   1.01474   0.00000  Uiso   1.00
N125   N     0.79643   0.50788   0.94987   0.00000  Uiso   1.00
N126   N     0.70717   0.46765   0.86467   0.00000  Uiso   1.00
C127   C     0.65878   0.46468   0.84880   0.00000  Uiso   1.00
C128   C     0.65369   0.50438   0.89717   0.00000  Uiso   1.00
N129   N     0.69908   0.54696  -0.04087   0.00000  Uiso   1.00
H130   H     0.87602   0.62304   0.10885   0.00000  Uiso   1.00
H131   H     0.62384   0.43039   0.79914   0.00000  Uiso   1.00
C132   C     0.27084   0.76455   1.09736   0.00000  Uiso   1.00
C133   C     0.22461   0.75063   1.03326   0.00000  Uiso   1.00
N134   N     0.23712   0.78656  -0.03620   0.00000  Uiso   1.00
C135   C     0.29405   0.83475  -0.04633   0.00000  Uiso   1.00
C136   C     0.34026   0.84685   0.01498   0.00000  Uiso   1.00
N137   N     0.32693   0.81146   0.08564   0.00000  Uiso   1.00
N138   N     0.26038   0.72948   1.16542   0.00000  Uiso   1.00
C139   C     0.20617   0.67915   1.16918   0.00000  Uiso   1.00
C140   C     0.16115   0.66200   1.09887   0.00000  Uiso   1.00
N141   N     0.17056   0.69891   1.03405   0.00000  Uiso   1.00
H142   H     0.30351   0.86116  -0.10554   0.00000  Uiso   1.00
H143   H     0.20101   0.64942   1.21681   0.00000  Uiso   1.00
C144   C     0.58956   0.80530   0.98478   0.00000  Uiso   1.00
C145   C     0.54181   0.76020   1.03563   0.00000  Uiso   1.00
N146   N     0.49980   0.76279   0.08095   0.00000  Uiso   1.00
C147   C     0.50213   0.80797   0.07538   0.00000  Uiso   1.00
C148   C     0.54782   0.85242   1.02034   0.00000  Uiso   1.00
N149   N     0.59140   0.85061   0.97693   0.00000  Uiso   1.00
N150   N     0.63089   0.80119   0.93893   0.00000  Uiso   1.00
C151   C     0.62560   0.75362   0.93975   0.00000  Uiso   1.00
C152   C     0.57603   0.70776   0.98682   0.00000  Uiso   1.00
N153   N     0.53595   0.71288   0.03410   0.00000  Uiso   1.00
H154   H     0.46704   0.80825   0.11062   0.00000  Uiso   1.00
H155   H     0.65809   0.75083   0.90003   0.00000  Uiso   1.00
C156   C     0.40963   0.20141  -0.05632   0.00000  Uiso   1.00
C157   C     0.46186   0.21793  -0.00744   0.00000  Uiso   1.00
N158   N     0.50428   0.27182   0.02371   0.00000  Uiso   1.00
C159   C     0.49809   0.31074   0.00619   0.00000  Uiso   1.00
C160   C     0.44818   0.29583  -0.04834   0.00000  Uiso   1.00
N161   N     0.40389   0.24094  -0.07733   0.00000  Uiso   1.00
N162   N     0.36738   0.14655  -0.08626   0.00000  Uiso   1.00
C163   C     0.37601   0.10828  -0.07190   0.00000  Uiso   1.00
C164   C     0.42972   0.12581  -0.02734   0.00000  Uiso   1.00
N165   N     0.47084   0.18024   0.00444   0.00000  Uiso   1.00
H166   H     0.53380   0.35375   1.03072   0.00000  Uiso   1.00
H167   H     0.34247   0.06514  -0.09865   0.00000  Uiso   1.00
loop_
_geom_bond_atom_site_label_1
_geom_bond_atom_site_label_2
_geom_bond_distance
_geom_bond_site_symmetry_2
_ccdc_geom_bond_type
O0     C6      1.303   .     A
O0     Yb3     2.164   1_556 S
Yb1    O4      2.167   .     S
Yb1    O9      2.121   .     S
Yb1    O17     2.204   .     S
Yb1    O19     2.132   .     S
Yb1    Yb3     2.818   1_556 S
Yb1    O10     2.238   1_556 S
Yb1    O11     2.168   1_556 S
Yb1    O16     2.122   1_556 S
C2     O16     1.275   .     A
C2     C160    1.471   .     S
C2     O17     1.285   1_554 A
Yb3    O10     2.126   .     S
Yb3    O12     2.174   .     S
Yb3    O13     2.166   .     S
Yb3    O18     2.117   .     S
Yb3    O0      2.164   1_554 S
Yb3    Yb1     2.818   1_554 S
Yb3    O7      2.142   1_554 S
Yb3    O19     2.223   1_554 S
O4     C6      1.304   .     A
C5     O18     1.229   .     D
C5     C100    1.481   .     S
C5     O19     1.401   1_554 S
C6     C68     1.470   .     S
O7     C8      1.283   .     A
O7     Yb3     2.142   1_556 S
C8     C152    1.471   .     S
C8     O12     1.282   1_556 A
O9     C14     1.221   .     D
O10    Yb1     2.238   1_554 S
O10    C14     1.406   1_554 S
O11    C15     1.303   .     A
O11    Yb1     2.168   1_554 S
O12    C8      1.282   1_554 A
O13    C15     1.302   .     A
C14    C128    1.467   .     S
C14    O10     1.406   1_556 S
C15    C64     1.471   .     S
O16    Yb1     2.122   1_554 S
O17    C2      1.285   1_556 A
O19    Yb3     2.223   1_556 S
O19    C5      1.401   1_556 S
O20    C26     1.301   .     A
O20    Yb23    2.159   .     S
Yb21   O30     2.231   .     S
Yb21   O31     2.159   .     S
Yb21   O36     2.113   .     S
Yb21   Yb23    2.829   1_454 S
Yb21   O24     2.161   1_554 S
Yb21   O29     2.134   1_554 S
Yb21   O37     2.227   1_554 S
Yb21   O39     2.143   1_454 S
C22    O36     1.275   .     A
C22    C104    1.486   .     S
C22    O37     1.282   1_554 A
Yb23   O27     2.130   .     S
Yb23   O39     2.219   .     S
Yb23   Yb21    2.829   1_656 S
Yb23   O30     2.098   1_656 S
Yb23   O32     2.169   1_556 S
Yb23   O33     2.162   1_556 S
Yb23   O38     2.131   1_556 S
O24    Yb21    2.161   1_556 S
O24    C26     1.301   1_455 A
C25    O38     1.230   .     D
C25    C112    1.474   .     S
C25    O39     1.407   1_554 S
C26    O24     1.301   1_655 A
C26    C76     1.473   1_655 S
O27    C28     1.284   .     A
C28    C124    1.460   .     S
C28    O32     1.277   1_556 A
O29    C34     1.223   .     D
O29    Yb21    2.134   1_556 S
O30    Yb23    2.098   1_454 S
O30    C34     1.390   1_554 S
O31    C35     1.306   .     A
O32    Yb23    2.169   1_554 S
O32    C28     1.277   1_554 A
O33    Yb23    2.162   1_554 S
O33    C35     1.305   1_655 A
C34    C140    1.474   .     S
C34    O30     1.390   1_556 S
C35    O33     1.305   1_455 A
C35    C80     1.473   1_455 S
O37    Yb21    2.227   1_556 S
O37    C22     1.282   1_556 A
O38    Yb23    2.131   1_554 S
O39    Yb21    2.143   1_656 S
O39    C25     1.407   1_556 S
O40    C46     1.301   .     A
O40    Yb43    2.161   1_554 S
Yb41   O44     2.160   .     S
Yb41   O49     2.155   .     S
Yb41   O57     2.185   .     S
Yb41   Yb43    2.832   1_564 S
Yb41   O50     2.192   1_554 S
Yb41   O51     2.165   1_554 S
Yb41   O56     2.129   1_554 S
Yb41   O59     2.145   1_565 S
C42    O56     1.279   .     A
C42    C148    1.472   .     S
C42    O57     1.285   1_556 A
Yb43   O52     2.156   .     S
Yb43   O53     2.164   .     S
Yb43   O58     2.136   .     S
Yb43   O40     2.161   1_556 S
Yb43   Yb41    2.832   1_546 S
Yb43   O47     2.139   1_556 S
Yb43   O50     2.090   1_545 S
Yb43   O59     2.206   1_556 S
O44    C46     1.300   1_565 A
C45    O59     1.405   .     S
C45    O58     1.229   1_554 D
C45    C116    1.470   1_554 S
C46    C88     1.474   .     S
C46    O44     1.300   1_545 A
O47    C48     1.283   .     A
O47    Yb43    2.139   1_554 S
C48    C164    1.465   .     S
C48    O52     1.278   1_554 A
O49    C54     1.224   .     D
O50    Yb41    2.192   1_556 S
O50    Yb43    2.090   1_565 S
O50    C54     1.384   1_556 S
O51    C55     1.309   .     A
O51    Yb41    2.165   1_556 S
O52    C48     1.278   1_556 A
O53    C55     1.307   1_545 A
C54    C136    1.461   .     S
C54    O50     1.384   1_554 S
C55    O53     1.307   1_565 A
C55    C92     1.473   1_565 S
O56    Yb41    2.129   1_556 S
O57    C42     1.285   1_554 A
O58    C45     1.229   1_556 D
O59    Yb41    2.145   1_545 S
O59    Yb43    2.206   1_554 S
C60    C61     1.407   .     A
C60    N65     1.360   .     A
C60    N66     1.361   .     A
C61    N62     1.363   .     A
C61    N69     1.359   .     A
N62    C63     1.360   .     A
C63    C64     1.409   .     A
C63    H70     1.084   .     S
C64    N65     1.366   .     A
N66    C67     1.361   .     A
C67    C68     1.407   .     A
C67    H71     1.083   .     S
C68    N69     1.366   .     A
C72    N77     1.357   .     A
C72    N78     1.358   .     A
C72    C73     1.403   1_655 A
C73    N74     1.360   .     A
C73    N81     1.356   .     A
C73    C72     1.403   1_455 A
N74    C75     1.360   .     A
C75    C76     1.410   .     A
C75    H82     1.082   .     S
C76    N77     1.364   1_455 A
C76    C26     1.473   1_455 S
N77    C76     1.364   1_655 A
N78    C79     1.360   .     A
C79    C80     1.407   .     A
C79    H83     1.082   .     S
C80    N81     1.363   1_655 A
C80    C35     1.473   1_655 S
N81    C80     1.363   1_455 A
C84    N89     1.357   .     A
C84    N90     1.359   .     A
C84    C85     1.404   1_545 A
C85    N86     1.358   .     A
C85    N93     1.357   .     A
C85    C84     1.404   1_565 A
N86    C87     1.361   .     A
C87    H94     1.084   .     S
C87    C88     1.408   1_565 A
C88    N89     1.365   .     A
C88    C87     1.408   1_545 A
N90    C91     1.361   .     A
C91    C92     1.407   .     A
C91    H95     1.082   .     S
C92    N93     1.364   1_545 A
C92    C55     1.473   1_545 S
N93    C92     1.364   1_565 A
C96    N101    1.338   .     A
C96    N102    1.346   .     A
C96    C97     1.405   1_556 A
C97    N98     1.371   .     A
C97    N105    1.376   .     A
C97    C96     1.405   1_554 A
N98    C99     1.377   .     A
C99    C100    1.414   .     A
C99    H106    1.084   .     S
C100   N101    1.358   1_554 A
N101   C100    1.358   1_556 A
N102   C103    1.342   .     A
C103   H107    1.085   .     S
C103   C104    1.414   1_556 A
C104   N105    1.377   .     A
C104   C103    1.414   1_554 A
C108   N113    1.369   .     A
C108   N114    1.364   .     A
C108   C109    1.410   1_554 A
C109   N110    1.362   .     A
C109   N117    1.355   .     A
C109   C108    1.410   1_556 A
N110   C111    1.349   .     A
C111   H118    1.087   .     S
C111   C112    1.399   1_556 A
C112   N113    1.372   .     A
C112   C111    1.399   1_554 A
N114   C115    1.368   .     A
C115   H119    1.085   .     S
C115   C116    1.407   1_554 A
C116   N117    1.359   .     A
C116   C115    1.407   1_556 A
C116   C45     1.470   1_556 S
C120   N125    1.343   .     A
C120   N126    1.347   .     A
C120   C121    1.405   1_556 A
C121   N122    1.363   .     A
C121   N129    1.371   .     A
C121   C120    1.405   1_554 A
N122   C123    1.369   .     A
C123   H130    1.081   .     S
C123   C124    1.404   1_554 A
C124   N125    1.353   .     A
C124   C123    1.404   1_556 A
N126   C127    1.345   .     A
C127   C128    1.405   .     A
C127   H131    1.084   .     S
C128   N129    1.369   1_556 A
N129   C128    1.369   1_554 A
C132   C133    1.408   .     A
C132   N138    1.347   .     A
C132   N137    1.348   1_556 A
C133   N141    1.366   .     A
C133   N134    1.363   1_556 A
N134   C135    1.371   .     A
N134   C133    1.363   1_554 A
C135   C136    1.404   .     A
C135   H142    1.083   .     S
C136   N137    1.357   .     A
N137   C132    1.348   1_554 A
N138   C139    1.352   .     A
C139   C140    1.408   .     A
C139   H143    1.087   .     S
C140   N141    1.368   .     A
C144   C145    1.404   .     A
C144   N149    1.369   .     A
C144   N150    1.363   .     A
C145   N146    1.351   1_556 A
C145   N153    1.350   1_556 A
N146   C147    1.352   .     A
N146   C145    1.351   1_554 A
C147   H154    1.083   .     S
C147   C148    1.407   1_554 A
C148   N149    1.368   .     A
C148   C147    1.407   1_556 A
N150   C151    1.370   .     A
C151   C152    1.406   .     A
C151   H155    1.085   .     S
C152   N153    1.357   1_556 A
N153   C145    1.350   1_554 A
N153   C152    1.357   1_554 A
C156   C157    1.409   .     A
C156   N161    1.370   .     A
C156   N162    1.363   .     A
C157   N158    1.348   .     A
C157   N165    1.349   .     A
N158   C159    1.348   .     A
C159   C160    1.408   .     A
C159   H166    1.085   1_554 S
C160   N161    1.370   .     A
N162   C163    1.366   .     A
C163   C164    1.409   .     A
C163   H167    1.084   .     S
C164   N165    1.356   .     A
H166   C159    1.085   1_556 S
