data_kag+N394+E14
_audit_creation_date              2025-01-21
_audit_creation_method            'Materials Studio'
_symmetry_space_group_name_H-M    'P1'
_symmetry_Int_Tables_number       1
_symmetry_cell_setting            triclinic
loop_
_symmetry_equiv_pos_as_xyz
  x,y,z
_cell_length_a                    21.9722
_cell_length_b                    25.5304
_cell_length_c                    10.2058
_cell_angle_alpha                 92.2012
_cell_angle_beta                  99.5017
_cell_angle_gamma                 108.7469
loop_
_atom_site_label
_atom_site_type_symbol
_atom_site_fract_x
_atom_site_fract_y
_atom_site_fract_z
_atom_site_U_iso_or_equiv
_atom_site_adp_type
_atom_site_occupancy
Pr0    Pr    0.51034   0.56198   0.01950   0.00000  Uiso   1.00
Pr1    Pr    0.49191   0.43597   1.06807   0.00000  Uiso   1.00
O2     O     0.39013   0.43751   1.09731   0.00000  Uiso   1.00
O3     O     0.40535   0.53016   0.06930   0.00000  Uiso   1.00
O4     O     0.48750   0.62833   0.89779   0.00000  Uiso   1.00
O5     O     0.54986   0.65396   0.09137   0.00000  Uiso   1.00
O6     O     0.54243   0.51821   0.19275   0.00000  Uiso   1.00
O7     O     0.47602   0.56083   0.22283   0.00000  Uiso   1.00
C8     C     0.49003   0.46450   0.80814   0.00000  Uiso   1.00
C9     C     0.36989   0.48026   0.09119   0.00000  Uiso   1.00
C10    C     0.52135   0.66842   0.98629   0.00000  Uiso   1.00
C11    C     0.48730   0.33009   0.09062   0.00000  Uiso   1.00
C12    C     0.62887   0.51634   0.98172   0.00000  Uiso   1.00
C13    C     0.50591   0.53259   0.27630   0.00000  Uiso   1.00
O14    O     0.60919   0.55927  -0.02354   0.00000  Uiso   1.00
O15    O     0.59536   0.46774   1.01334   0.00000  Uiso   1.00
O16    O     0.51898   0.36930   0.18240   0.00000  Uiso   1.00
O17    O     0.45533   0.34460   0.99062   0.00000  Uiso   1.00
O18    O     0.45683   0.48004   0.89687   0.00000  Uiso   1.00
O19    O     0.51885   0.43505   0.85781   0.00000  Uiso   1.00
Pr20   Pr    0.95751   0.44050   0.93517   0.00000  Uiso   1.00
Pr21   Pr    0.04284   0.57277  -0.08753   0.00000  Uiso   1.00
O22    O     0.92898   0.54873  -0.06936   0.00000  Uiso   1.00
O23    O     0.87263   0.46299   0.83129   0.00000  Uiso   1.00
O24    O     0.88477   0.37875   0.03332   0.00000  Uiso   1.00
O25    O     0.91472   0.34787   0.86408   0.00000  Uiso   1.00
O26    O     0.02235   0.48875   0.79692   0.00000  Uiso   1.00
O27    O     0.92141   0.45044   0.71174   0.00000  Uiso   1.00
C28    C     0.02059   0.53689   0.16120   0.00000  Uiso   1.00
C29    C     0.87390   0.51112   0.87302   0.00000  Uiso   1.00
C30    C     0.87721   0.33748  -0.04952   0.00000  Uiso   1.00
C31    C     0.14134   0.66870   0.96410   0.00000  Uiso   1.00
C32    C     0.10898   0.47725   0.05121   0.00000  Uiso   1.00
C33    C    -0.02624   0.47750   0.68624   0.00000  Uiso   1.00
O34    O     0.05594   0.43503   1.03427   0.00000  Uiso   1.00
O35    O     0.11067   0.52694   0.02365   0.00000  Uiso   1.00
O36    O     0.14176   0.62833   0.88564   0.00000  Uiso   1.00
O37    O     0.08914   0.66038   0.01326   0.00000  Uiso   1.00
O38    O     0.97423   0.52603   0.04725   0.00000  Uiso   1.00
O39    O     0.07395   0.56130   0.13705   0.00000  Uiso   1.00
Pr40   Pr    0.59711   0.02809   0.02376   0.00000  Uiso   1.00
Pr41   Pr    0.43622   0.97689   1.00199   0.00000  Uiso   1.00
O42    O     0.45119   0.06830   0.04944   0.00000  Uiso   1.00
O43    O     0.56232   0.10521   0.06084   0.00000  Uiso   1.00
O44    O     0.63239   0.12326   1.04052   0.00000  Uiso   1.00
O45    O     0.67849   0.08144  -0.07559   0.00000  Uiso   1.00
O46    O     0.52610   0.98147   0.15036   0.00000  Uiso   1.00
O47    O     0.61511   0.04120   0.25383   0.00000  Uiso   1.00
C48    C     0.46978   0.99443   0.75921   0.00000  Uiso   1.00
C49    C     0.50505   0.10970   0.06483   0.00000  Uiso   1.00
C50    C     0.67741   0.12776   0.97232   0.00000  Uiso   1.00
C51    C     0.35399   0.87588   0.03809   0.00000  Uiso   1.00
C52    C     0.52768   0.89487   0.96416   0.00000  Uiso   1.00
C53    C     0.56062   0.01295   0.26616   0.00000  Uiso   1.00
O54    O     0.58212   0.93577   0.98244   0.00000  Uiso   1.00
O55    O     0.47052   0.90022   0.96212   0.00000  Uiso   1.00
O56    O     0.40154   0.88205  -0.02396   0.00000  Uiso   1.00
O57    O     0.35176   0.92119   1.09004   0.00000  Uiso   1.00
O58    O     0.50658   0.02322   0.87687   0.00000  Uiso   1.00
O59    O     0.41471   0.96742   0.77174   0.00000  Uiso   1.00
C60    C     0.53628   0.48115   0.46627   0.00000  Uiso   1.00
C61    C     0.50166   0.51531   0.41230   0.00000  Uiso   1.00
C62    C     0.46244   0.53240   0.48914   0.00000  Uiso   1.00
C63    C     0.45828   0.51585   0.61779   0.00000  Uiso   1.00
C64    C     0.49295   0.48164   0.67161   0.00000  Uiso   1.00
C65    C     0.53186   0.46438   0.59435   0.00000  Uiso   1.00
H66    H     0.56661   0.46725   0.40923   0.00000  Uiso   1.00
H67    H     0.43500   0.55861   0.44970   0.00000  Uiso   1.00
H68    H     0.42813   0.52983   0.67523   0.00000  Uiso   1.00
H69    H     0.55910   0.43797   0.63327   0.00000  Uiso   1.00
C70    C     0.93288   0.47872   0.44136   0.00000  Uiso   1.00
C71    C    -0.01535   0.49378   0.55200   0.00000  Uiso   1.00
C72    C     0.04816   0.52281   0.53275   0.00000  Uiso   1.00
C73    C     0.05988   0.53628   0.40545   0.00000  Uiso   1.00
C74    C     0.00821   0.52124   0.29484   0.00000  Uiso   1.00
C75    C     0.94455   0.49244   0.31383   0.00000  Uiso   1.00
H76    H     0.88348   0.45607   0.45334   0.00000  Uiso   1.00
H77    H     0.08895   0.53487   0.61610   0.00000  Uiso   1.00
H78    H     0.10939   0.55869   0.39368   0.00000  Uiso   1.00
H79    H     0.90386   0.48048   0.23017   0.00000  Uiso   1.00
C80    C     0.57479   1.04416   0.50514   0.00000  Uiso   1.00
C81    C     0.53726   0.00870   0.39184   0.00000  Uiso   1.00
C82    C     0.47682  -0.03091   0.39888   0.00000  Uiso   1.00
C83    C     0.45424  -0.03532   0.51894   0.00000  Uiso   1.00
C84    C     0.49209  -0.00020   0.63250   0.00000  Uiso   1.00
C85    C     0.55226   1.03965   0.62519   0.00000  Uiso   1.00
H86    H     0.62132   1.07532   0.50099   0.00000  Uiso   1.00
H87    H     0.44746  -0.05878   0.31230   0.00000  Uiso   1.00
H88    H     0.40782  -0.06654   0.52346   0.00000  Uiso   1.00
H89    H     0.58164   1.06739   0.71183   0.00000  Uiso   1.00
C90    C     0.28983   0.51904   1.16616   0.00000  Uiso   1.00
C91    C     0.30298   0.47333   0.11220   0.00000  Uiso   1.00
C92    C     0.25075   0.42405   0.06490   0.00000  Uiso   1.00
C93    C     0.18594   0.42277   0.05806   0.00000  Uiso   1.00
C94    C     0.17305   0.47069   0.09927   0.00000  Uiso   1.00
C95    C     0.22560   0.51766   1.16039   0.00000  Uiso   1.00
H96    H     0.32929   0.55710   1.20609   0.00000  Uiso   1.00
H97    H     0.25978   0.38817   0.02345   0.00000  Uiso   1.00
H98    H     0.14635   0.38622   0.00968   0.00000  Uiso   1.00
H99    H     0.21708   0.55498   1.19457   0.00000  Uiso   1.00
C100   C     0.77365   0.28125   0.01651   0.00000  Uiso   1.00
C101   C     0.82612   0.28343  -0.04799   0.00000  Uiso   1.00
C102   C     0.82727   0.23448  -0.11334   0.00000  Uiso   1.00
C103   C     0.77793   0.18382   0.89027   0.00000  Uiso   1.00
C104   C     0.72600   0.18162   0.95691   0.00000  Uiso   1.00
C105   C     0.72386   0.23103   1.01793   0.00000  Uiso   1.00
H106   H     0.77089   0.31858   0.06559   0.00000  Uiso   1.00
H107   H     0.86678   0.23524  -0.16494   0.00000  Uiso   1.00
H108   H     0.78082   0.14627   0.84253   0.00000  Uiso   1.00
H109   H     0.68434   0.23097   1.06878   0.00000  Uiso   1.00
C110   C     0.80757   0.56549  -0.04702   0.00000  Uiso   1.00
C111   C     0.81067   0.51885   0.87977   0.00000  Uiso   1.00
C112   C     0.75243   0.47492   0.82921   0.00000  Uiso   1.00
C113   C     0.69343   0.47534   0.86036   0.00000  Uiso   1.00
C114   C     0.69080   0.52031  -0.06042   0.00000  Uiso   1.00
C115   C     0.74765   0.56645  -0.01843   0.00000  Uiso   1.00
H116   H     0.85166   0.59990  -0.00668   0.00000  Uiso   1.00
H117   H     0.75280   0.43862   0.77133   0.00000  Uiso   1.00
H118   H     0.64991   0.43966   0.82511   0.00000  Uiso   1.00
H119   H     0.74636   0.60160   0.04243   0.00000  Uiso   1.00
C120   C     0.31018   0.77298   0.98373   0.00000  Uiso   1.00
C121   C     0.30317   0.82156   0.03853   0.00000  Uiso   1.00
C122   C     0.24396   0.81860   0.07845   0.00000  Uiso   1.00
C123   C     0.19159   0.76849   0.05762   0.00000  Uiso   1.00
C124   C     0.19755   0.72074   0.99571   0.00000  Uiso   1.00
C125   C     0.25774   0.72316   0.96177   0.00000  Uiso   1.00
H126   H     0.35559   0.77364   0.95445   0.00000  Uiso   1.00
H127   H     0.23731   0.85547   0.12091   0.00000  Uiso   1.00
H128   H     0.14588   0.76752   0.08589   0.00000  Uiso   1.00
H129   H     0.26402   0.68669   0.91616   0.00000  Uiso   1.00
C130   C     0.48118   0.79495   0.87180   0.00000  Uiso   1.00
C131   C     0.53062   0.83798   0.95531   0.00000  Uiso   1.00
C132   C     0.57936   0.82528   1.04227   0.00000  Uiso   1.00
C133   C     0.57686   0.77014   1.05061   0.00000  Uiso   1.00
C134   C     0.52638   0.72681   0.96996   0.00000  Uiso   1.00
C135   C     0.47942   0.73976   0.87795   0.00000  Uiso   1.00
H136   H     0.44361   0.80423   0.80338   0.00000  Uiso   1.00
H137   H     0.61747   0.85775   1.10882   0.00000  Uiso   1.00
H138   H     0.61365   0.76129   1.12211   0.00000  Uiso   1.00
H139   H     0.44021   0.70713   0.81414   0.00000  Uiso   1.00
C140   C     0.54495   0.26326   0.16706   0.00000  Uiso   1.00
C141   C     0.48984   0.27314   0.09546   0.00000  Uiso   1.00
C142   C     0.43922   0.22871   0.01932   0.00000  Uiso   1.00
C143   C     0.44381   0.17546   0.01320   0.00000  Uiso   1.00
C144   C     0.49979   0.16574   0.08067   0.00000  Uiso   1.00
C145   C     0.55016   0.20994   0.15869   0.00000  Uiso   1.00
H146   H     0.58485   0.29702   0.22585   0.00000  Uiso   1.00
H147   H     0.39638   0.23532  -0.03686   0.00000  Uiso   1.00
H148   H     0.40442   0.14211  -0.04822   0.00000  Uiso   1.00
H149   H     0.59320   0.20303   0.21305   0.00000  Uiso   1.00
loop_
_geom_bond_atom_site_label_1
_geom_bond_atom_site_label_2
_geom_bond_distance
_geom_bond_site_symmetry_2
_ccdc_geom_bond_type
Pr0    O3      2.335   .     S
Pr0    O5      2.270   .     S
Pr0    O6      2.262   .     S
Pr0    O7      2.320   .     S
Pr0    O14     2.308   .     S
Pr0    O4      2.273   1_554 S
Pr0    O18     2.249   1_554 S
Pr1    O2      2.317   .     S
Pr1    O15     2.325   .     S
Pr1    O17     2.271   .     S
Pr1    O18     2.275   .     S
Pr1    O19     2.320   .     S
Pr1    O6      2.256   1_556 S
Pr1    O16     2.277   1_556 S
O2     C9      1.304   1_556 A
O3     C9      1.312   .     A
O4     C10     1.278   .     A
O4     Pr0     2.273   1_556 S
O5     C10     1.279   1_554 A
O6     C13     1.377   .     S
O6     Pr1     2.256   1_554 S
O7     C13     1.210   .     D
C8     O18     1.373   .     S
C8     O19     1.205   .     D
C8     C64     1.482   .     S
C9     C91     1.476   .     S
C9     O2      1.304   1_554 A
C10    C134    1.477   .     S
C10    O5      1.279   1_556 A
C11    O16     1.276   .     A
C11    C141    1.475   .     S
C11    O17     1.277   1_554 A
C12    O15     1.307   .     A
C12    O14     1.301   1_556 A
C12    C114    1.468   1_556 S
C13    C61     1.481   .     S
O14    C12     1.301   1_554 A
O16    Pr1     2.277   1_554 S
O17    C11     1.277   1_556 A
O18    Pr0     2.249   1_556 S
Pr20   O23     2.239   .     S
Pr20   O25     2.284   .     S
Pr20   O27     2.339   .     S
Pr20   O24     2.253   1_556 S
Pr20   O26     2.282   1_655 S
Pr20   O34     2.281   1_655 S
Pr20   O38     2.316   1_556 S
Pr21   O35     2.354   .     S
Pr21   O37     2.261   .     S
Pr21   O39     2.339   .     S
Pr21   O22     2.418   1_455 S
Pr21   O26     2.281   1_554 S
Pr21   O36     2.249   1_554 S
Pr21   O38     2.290   1_455 S
O22    Pr21    2.418   1_655 S
O22    C29     1.307   1_554 A
O23    C29     1.275   .     A
O24    C30     1.275   .     A
O24    Pr20    2.253   1_554 S
O25    C30     1.282   1_556 A
O26    C33     1.371   .     S
O26    Pr20    2.282   1_455 S
O26    Pr21    2.281   1_556 S
O27    C33     1.212   1_655 D
C28    O39     1.209   .     D
C28    C74     1.479   .     S
C28    O38     1.367   1_455 S
C29    C111    1.477   .     S
C29    O22     1.307   1_556 A
C30    C101    1.475   .     S
C30    O25     1.282   1_554 A
C31    O36     1.284   .     A
C31    C124    1.475   .     S
C31    O37     1.286   1_556 A
C32    O35     1.300   .     A
C32    C94     1.476   .     S
C32    O34     1.289   1_554 A
C33    C71     1.482   .     S
C33    O27     1.212   1_455 D
O34    Pr20    2.281   1_455 S
O34    C32     1.289   1_556 A
O36    Pr21    2.249   1_556 S
O37    C31     1.286   1_554 A
O38    Pr20    2.316   1_554 S
O38    Pr21    2.290   1_655 S
O38    C28     1.367   1_655 S
Pr40   O43     2.368   .     S
Pr40   O45     2.285   .     S
Pr40   O47     2.309   .     S
Pr40   O44     2.291   1_554 S
Pr40   O46     2.261   1_545 S
Pr40   O54     2.285   1_544 S
Pr40   O58     2.250   1_554 S
Pr41   O55     2.357   .     S
Pr41   O57     2.286   .     S
Pr41   O59     2.307   .     S
Pr41   O42     2.271   1_566 S
Pr41   O46     2.249   1_556 S
Pr41   O56     2.283   1_556 S
Pr41   O58     2.239   1_565 S
O42    C49     1.290   .     A
O42    Pr41    2.271   1_544 S
O43    C49     1.307   .     A
O44    C50     1.279   .     A
O44    Pr40    2.291   1_556 S
O45    C50     1.271   1_554 A
O46    Pr40    2.261   1_565 S
O46    Pr41    2.249   1_554 S
O46    C53     1.363   1_565 S
O47    C53     1.213   .     D
C48    O59     1.216   .     D
C48    O58     1.366   1_565 S
C48    C84     1.453   1_565 S
C49    C144    1.477   .     S
C50    C104    1.478   .     S
C50    O45     1.271   1_556 A
C51    O56     1.280   .     A
C51    C121    1.475   .     S
C51    O57     1.273   1_554 A
C52    O54     1.290   .     A
C52    O55     1.303   .     A
C52    C131    1.474   .     S
C53    C81     1.454   .     S
C53    O46     1.363   1_545 S
O54    Pr40    2.285   1_566 S
O56    Pr41    2.283   1_554 S
O57    C51     1.273   1_556 A
O58    Pr40    2.250   1_556 S
O58    Pr41    2.239   1_545 S
O58    C48     1.366   1_545 S
C60    C61     1.403   .     A
C60    C65     1.400   .     A
C60    H66     1.083   .     S
C61    C62     1.409   .     A
C62    C63     1.403   .     A
C62    H67     1.083   .     S
C63    C64     1.404   .     A
C63    H68     1.084   .     S
C64    C65     1.409   .     A
C65    H69     1.083   .     S
C70    C75     1.404   .     A
C70    H76     1.083   .     S
C70    C71     1.407   1_655 A
C71    C72     1.404   .     A
C71    C70     1.407   1_455 A
C72    C73     1.400   .     A
C72    H77     1.083   .     S
C73    C74     1.405   .     A
C73    H78     1.083   .     S
C74    C75     1.405   1_455 A
C75    H79     1.084   .     S
C75    C74     1.405   1_655 A
C80    C85     1.391   .     A
C80    H86     1.083   .     S
C80    C81     1.401   1_565 A
C81    C82     1.402   .     A
C81    C80     1.401   1_545 A
C82    C83     1.391   .     A
C82    H87     1.082   .     S
C83    C84     1.401   .     A
C83    H88     1.083   .     S
C84    C85     1.401   1_545 A
C84    C48     1.453   1_545 S
C85    H89     1.082   .     S
C85    C84     1.401   1_565 A
C90    C95     1.392   .     A
C90    H96     1.083   .     S
C90    C91     1.403   1_556 A
C91    C92     1.405   .     A
C91    C90     1.403   1_554 A
C92    C93     1.404   .     A
C92    H97     1.083   .     S
C93    C94     1.406   .     A
C93    H98     1.083   .     S
C94    C95     1.405   1_554 A
C95    H99     1.084   .     S
C95    C94     1.405   1_556 A
C100   C101    1.406   .     A
C100   H106    1.083   .     S
C100   C105    1.395   1_554 A
C101   C102    1.403   .     A
C102   H107    1.083   .     S
C102   C103    1.402   1_554 A
C103   C104    1.409   .     A
C103   H108    1.083   .     S
C103   C102    1.402   1_556 A
C104   C105    1.403   .     A
C105   H109    1.082   .     S
C105   C100    1.395   1_556 A
C110   C115    1.402   .     A
C110   H116    1.083   .     S
C110   C111    1.408   1_554 A
C111   C112    1.406   .     A
C111   C110    1.408   1_556 A
C112   C113    1.388   .     A
C112   H117    1.083   .     S
C113   H118    1.084   .     S
C113   C114    1.401   1_556 A
C114   C115    1.404   .     A
C114   C113    1.401   1_554 A
C114   C12     1.468   1_554 S
C115   H119    1.082   .     S
C120   C125    1.395   .     A
C120   H126    1.083   .     S
C120   C121    1.405   1_556 A
C121   C122    1.406   .     A
C121   C120    1.405   1_554 A
C122   C123    1.399   .     A
C122   H127    1.083   .     S
C123   H128    1.083   .     S
C123   C124    1.405   1_554 A
C124   C125    1.405   .     A
C124   C123    1.405   1_556 A
C125   H129    1.083   .     S
C130   C131    1.403   .     A
C130   C135    1.401   .     A
C130   H136    1.083   .     S
C131   C132    1.404   .     A
C132   C133    1.398   .     A
C132   H137    1.083   .     S
C133   C134    1.404   .     A
C133   H138    1.083   .     S
C134   C135    1.407   .     A
C135   H139    1.083   .     S
C140   C141    1.408   .     A
C140   C145    1.403   .     A
C140   H146    1.083   .     S
C141   C142    1.401   .     A
C142   C143    1.395   .     A
C142   H147    1.084   .     S
C143   C144    1.407   .     A
C143   H148    1.083   .     S
C144   C145    1.403   .     A
C145   H149    1.084   .     S
