data_kag+N106+E220
_audit_creation_date              2025-01-21
_audit_creation_method            'Materials Studio'
_symmetry_space_group_name_H-M    'P1'
_symmetry_Int_Tables_number       1
_symmetry_cell_setting            triclinic
loop_
_symmetry_equiv_pos_as_xyz
  x,y,z
_cell_length_a                    25.1874
_cell_length_b                    27.0489
_cell_length_c                    10.5048
_cell_angle_alpha                 93.3477
_cell_angle_beta                  82.1182
_cell_angle_gamma                 128.8099
loop_
_atom_site_label
_atom_site_type_symbol
_atom_site_fract_x
_atom_site_fract_y
_atom_site_fract_z
_atom_site_U_iso_or_equiv
_atom_site_adp_type
_atom_site_occupancy
Y0     Y     0.54687   0.58518  -0.01484   0.00000  Uiso   1.00
Y1     Y     0.46653   0.43390   1.00432   0.00000  Uiso   1.00
O2     O     0.63431   0.58038  -0.04757   0.00000  Uiso   1.00
O3     O     0.53221   0.51090   0.84731   0.00000  Uiso   1.00
C4     C     0.43105   0.31705   1.01240   0.00000  Uiso   1.00
O5     O     0.43025   0.43116   0.81735   0.00000  Uiso   1.00
O6     O     0.62593   0.69139  -0.05346   0.00000  Uiso   1.00
O7     O     0.53253   0.64308   0.87205   0.00000  Uiso   1.00
O8     O     0.57505   0.48199   1.03955   0.00000  Uiso   1.00
O9     O     0.50025   0.51183   0.14501   0.00000  Uiso   1.00
O10    O     0.54992   0.60770   0.19768   0.00000  Uiso   1.00
O11    O     0.43284   0.53453  -0.01160   0.00000  Uiso   1.00
C12    C     0.63183   0.53596   0.99918   0.00000  Uiso   1.00
O13    O     0.37806   0.43435   1.06086   0.00000  Uiso   1.00
C14    C     0.48088   0.48157   0.76989   0.00000  Uiso   1.00
O15    O     0.46747   0.35712   0.92063   0.00000  Uiso   1.00
O16    O     0.41135   0.33725   0.10293   0.00000  Uiso   1.00
C17    C     0.58898   0.69606  -0.11299   0.00000  Uiso   1.00
C18    C     0.37804   0.47970   0.03198   0.00000  Uiso   1.00
C19    C     0.51798   0.55426   0.24158   0.00000  Uiso   1.00
Y20    Y     0.95554   0.52273   0.03673   0.00000  Uiso   1.00
Y21    Y     0.04384   0.47645   1.02864   0.00000  Uiso   1.00
O22    O     0.06114   0.61769   0.00810   0.00000  Uiso   1.00
O23    O     1.03437   0.52916   0.88513   0.00000  Uiso   1.00
C24    C     0.13614   0.46100   1.06920   0.00000  Uiso   1.00
O25    O     0.02134   0.44592   0.82513   0.00000  Uiso   1.00
O26    O     0.87147   0.52651   0.12123   0.00000  Uiso   1.00
O27    O     0.90527   0.54970   0.92508   0.00000  Uiso   1.00
O28    O     0.11924   0.58335   1.04662   0.00000  Uiso   1.00
O29    O    -0.03342   0.47085   0.17900   0.00000  Uiso   1.00
O30    O     0.98551   0.55723   0.23644   0.00000  Uiso   1.00
O31    O     0.88470   0.41754  -0.00459   0.00000  Uiso   1.00
C32    C     0.11659   0.62816   1.02727   0.00000  Uiso   1.00
O33    O     0.93683   0.38444   1.07318   0.00000  Uiso   1.00
C34    C     0.01981   0.48665   0.78958   0.00000  Uiso   1.00
O35    O     0.09469   0.43095   0.98779   0.00000  Uiso   1.00
O36    O     0.12729   0.49641   0.13393   0.00000  Uiso   1.00
C37    C     0.86429   0.54302   0.01977   0.00000  Uiso   1.00
C38    C     0.88419   0.37297   0.03367   0.00000  Uiso   1.00
C39    C    -0.01362   0.51583   0.27089   0.00000  Uiso   1.00
Y40    Y     0.46850   0.03043   1.01012   0.00000  Uiso   1.00
Y41    Y     0.54416   0.96769  -0.03438   0.00000  Uiso   1.00
O42    O     0.37836   0.92735   1.05032   0.00000  Uiso   1.00
O43    O     0.49739  -0.01136   0.13673   0.00000  Uiso   1.00
C44    C     0.59497   0.90744  -0.12750   0.00000  Uiso   1.00
O45    O     0.54142   0.94562   0.17187   0.00000  Uiso   1.00
O46    O     0.47947   0.11270   0.94011   0.00000  Uiso   1.00
O47    O     0.41218   0.06574   0.11318   0.00000  Uiso   1.00
O48    O     0.43110   0.88882  -0.04341   0.00000  Uiso   1.00
O49    O     0.53273   1.02632   0.84235   0.00000  Uiso   1.00
O50    O     0.43074  -0.00948   0.82016   0.00000  Uiso   1.00
O51    O     0.57677   0.10614   1.05309   0.00000  Uiso   1.00
C52    C     0.37654   0.88144   0.00353   0.00000  Uiso   1.00
O53    O     0.63388   0.07302  -0.04665   0.00000  Uiso   1.00
C54    C     0.51210  -0.03529   0.22487   0.00000  Uiso   1.00
O55    O     0.61853   0.94686  -0.03899   0.00000  Uiso   1.00
O56    O     0.54792   0.90243   0.82727   0.00000  Uiso   1.00
C57    C     0.43812   0.10996   1.02845   0.00000  Uiso   1.00
C58    C     0.63290   0.11610   1.00891   0.00000  Uiso   1.00
C59    C     0.48054   0.99714   0.76645   0.00000  Uiso   1.00
C60    C     0.50461   0.53801   0.38008   0.00000  Uiso   1.00
C61    C     0.44447   0.47917   0.43223   0.00000  Uiso   1.00
C62    C     0.43656   0.46228   0.56072   0.00000  Uiso   1.00
C63    C     0.48784   0.50336   0.63917   0.00000  Uiso   1.00
C64    C     0.54682   0.56267   0.58834   0.00000  Uiso   1.00
C65    C     0.55489   0.58012   0.46009   0.00000  Uiso   1.00
O66    O     0.36684   0.37812   0.34772   0.00000  Uiso   1.00
O67    O     0.35386   0.45197   0.32365   0.00000  Uiso   1.00
N68    N     0.38992   0.43667   0.35721   0.00000  Uiso   1.00
H69    H     0.58715   0.59488   0.64705   0.00000  Uiso   1.00
H70    H     0.60194   0.62531   0.42192   0.00000  Uiso   1.00
H71    H     0.39013   0.41655   0.59894   0.00000  Uiso   1.00
C72    C     0.01369   0.49452   0.65461   0.00000  Uiso   1.00
C73    C     0.02177   0.46240   0.55117   0.00000  Uiso   1.00
C74    C     0.01159   0.46914   0.42696   0.00000  Uiso   1.00
C75    C    -0.00204   0.51014   0.40170   0.00000  Uiso   1.00
C76    C     0.99390   0.54439   0.50248   0.00000  Uiso   1.00
C77    C     1.00053   0.53588   0.62788   0.00000  Uiso   1.00
O78    O     0.02551   0.37777   0.50021   0.00000  Uiso   1.00
O79    O     0.10144   0.45458   0.62281   0.00000  Uiso   1.00
N80    N     0.04652   0.42779   0.56716   0.00000  Uiso   1.00
H81    H     0.98359   0.57655   0.48513   0.00000  Uiso   1.00
H82    H     0.99551   0.56194   0.70424   0.00000  Uiso   1.00
H83    H     0.01713   0.44427   0.34835   0.00000  Uiso   1.00
C84    C     0.49812   0.96556   0.36539   0.00000  Uiso   1.00
C85    C     0.51813   0.94330   0.45220   0.00000  Uiso   1.00
C86    C     0.51496   0.95645   0.58286   0.00000  Uiso   1.00
C87    C     0.48709  -0.01385   0.62943   0.00000  Uiso   1.00
C88    C     0.46319   0.00417   0.54459   0.00000  Uiso   1.00
C89    C     0.47018  -0.00459   0.41341   0.00000  Uiso   1.00
O90    O     0.58456   0.90954   0.46663   0.00000  Uiso   1.00
O91    O     0.50000   0.85583   0.34223   0.00000  Uiso   1.00
N92    N     0.53840   0.90495   0.41135   0.00000  Uiso   1.00
H93    H     0.44130   0.02722   0.57953   0.00000  Uiso   1.00
H94    H     0.45464   0.01291   0.34911   0.00000  Uiso   1.00
H95    H     0.53092   0.94060   0.64907   0.00000  Uiso   1.00
C96    C     0.31275   0.46993   1.05075   0.00000  Uiso   1.00
C97    C     0.25034   0.41368   1.01630   0.00000  Uiso   1.00
C98    C     0.19144   0.40971   1.02953   0.00000  Uiso   1.00
C99    C     0.19349   0.46023   0.07765   0.00000  Uiso   1.00
C100   C     0.25436   0.51421   0.11793   0.00000  Uiso   1.00
C101   C     0.31344   0.51922   0.10336   0.00000  Uiso   1.00
O102   O     0.19189   0.30385   0.99114   0.00000  Uiso   1.00
O103   O     0.29120   0.37253   0.86490   0.00000  Uiso   1.00
N104   N     0.24651   0.36197   0.96107   0.00000  Uiso   1.00
H105   H     0.25734   0.55407   0.15447   0.00000  Uiso   1.00
H106   H     0.36043   0.56222   0.13187   0.00000  Uiso   1.00
H107   H     0.14483   0.36819   0.99667   0.00000  Uiso   1.00
C108   C     0.81999   0.30683   0.03602   0.00000  Uiso   1.00
C109   C     0.75521   0.29185   0.07552   0.00000  Uiso   1.00
C110   C     0.69523   0.22949   0.06566   0.00000  Uiso   1.00
C111   C     0.69795   0.18104   1.02002   0.00000  Uiso   1.00
C112   C     0.76243   0.19597   0.98455   0.00000  Uiso   1.00
C113   C     0.82276   0.25818   0.99299   0.00000  Uiso   1.00
O114   O     0.69800   0.33634   0.10870   0.00000  Uiso   1.00
O115   O     0.78875   0.37741   0.21304   0.00000  Uiso   1.00
N116   N     0.74924   0.33858   0.12903   0.00000  Uiso   1.00
H117   H     0.76627   0.15980   0.94919   0.00000  Uiso   1.00
H118   H     0.87196   0.26888   0.96260   0.00000  Uiso   1.00
H119   H     0.64604   0.21888   0.09534   0.00000  Uiso   1.00
C120   C     0.81000   0.54899   0.01489   0.00000  Uiso   1.00
C121   C     0.81260   0.58651   0.92117   0.00000  Uiso   1.00
C122   C     0.75498   0.58403   0.91872   0.00000  Uiso   1.00
C123   C     0.69553   0.54500   1.00756   0.00000  Uiso   1.00
C124   C     0.69498   0.51022   0.10230   0.00000  Uiso   1.00
C125   C     0.75142   0.51264   0.10628   0.00000  Uiso   1.00
O126   O     0.86778   0.64128   0.71840   0.00000  Uiso   1.00
O127   O     0.93390   0.66095   0.86719   0.00000  Uiso   1.00
N128   N     0.87316   0.62835   0.83102   0.00000  Uiso   1.00
H129   H     0.65012   0.47983   0.17249   0.00000  Uiso   1.00
H130   H     0.74804   0.48356   0.17886   0.00000  Uiso   1.00
H131   H     0.75612   0.61178   0.84651   0.00000  Uiso   1.00
C132   C     0.30889   0.81710   1.00217   0.00000  Uiso   1.00
C133   C     0.30217   0.76781   0.92947   0.00000  Uiso   1.00
C134   C     0.23929   0.70635   0.94205   0.00000  Uiso   1.00
C135   C     0.18144   0.69343   0.01801   0.00000  Uiso   1.00
C136   C     0.18672   0.74253   0.08392   0.00000  Uiso   1.00
C137   C     0.25004   0.80357   0.07752   0.00000  Uiso   1.00
O138   O     0.36974   0.73982   0.82887   0.00000  Uiso   1.00
O139   O     0.38363   0.82210   0.74464   0.00000  Uiso   1.00
N140   N     0.35691   0.77967   0.83713   0.00000  Uiso   1.00
H141   H     0.14241   0.73321   0.14326   0.00000  Uiso   1.00
H142   H     0.25310   0.83999   0.13343   0.00000  Uiso   1.00
H143   H     0.23495   0.66897   0.88749   0.00000  Uiso   1.00
C144   C     0.61176   0.86414   0.84002   0.00000  Uiso   1.00
C145   C     0.66151   0.86782  -0.10046   0.00000  Uiso   1.00
C146   C     0.65726   0.81349  -0.09436   0.00000  Uiso   1.00
C147   C     0.60576   0.75678  -0.14910   0.00000  Uiso   1.00
C148   C     0.56331   0.75663   0.77722   0.00000  Uiso   1.00
C149   C     0.56656   0.80983   0.77120   0.00000  Uiso   1.00
O150   O     0.73246   0.92021   0.06553   0.00000  Uiso   1.00
O151   O     0.74699   0.97965   0.90366   0.00000  Uiso   1.00
N152   N     0.71328   0.92429   0.96057   0.00000  Uiso   1.00
H153   H     0.52386   0.71369   0.73224   0.00000  Uiso   1.00
H154   H     0.52881   0.80589   0.72260   0.00000  Uiso   1.00
H155   H     0.69144   0.81441  -0.03992   0.00000  Uiso   1.00
C156   C     0.41814   0.25557   1.01307   0.00000  Uiso   1.00
C157   C     0.43868   0.23677   0.90095   0.00000  Uiso   1.00
C158   C     0.44131   0.18723   0.90883   0.00000  Uiso   1.00
C159   C     0.42319   0.15453   1.02570   0.00000  Uiso   1.00
C160   C     0.39763   0.16952   0.13522   0.00000  Uiso   1.00
C161   C     0.39523   0.21992   0.12887   0.00000  Uiso   1.00
O162   O     0.52415   0.29556   0.72347   0.00000  Uiso   1.00
O163   O     0.42042   0.27036   0.71938   0.00000  Uiso   1.00
N164   N     0.46240   0.27044   0.77972   0.00000  Uiso   1.00
H165   H     0.38375   0.14510   0.22649   0.00000  Uiso   1.00
H166   H     0.37990   0.23360   0.21610   0.00000  Uiso   1.00
H167   H     0.46008   0.17570   0.82226   0.00000  Uiso   1.00
loop_
_geom_bond_atom_site_label_1
_geom_bond_atom_site_label_2
_geom_bond_distance
_geom_bond_site_symmetry_2
_ccdc_geom_bond_type
Y0     O2      2.265   .     S
Y0     O6      2.264   .     S
Y0     O9      2.250   .     S
Y0     O10     2.278   .     S
Y0     O11     2.274   .     S
Y0     O3      2.269   1_554 S
Y0     O7      2.245   1_554 S
Y1     O3      2.265   .     S
Y1     O5      2.256   .     S
Y1     O8      2.250   .     S
Y1     O13     2.233   .     S
Y1     O15     2.220   .     S
Y1     O9      2.255   1_556 S
Y1     O16     2.282   1_556 S
O2     C12     1.287   1_554 A
O3     C14     1.375   .     S
O3     Y0      2.269   1_556 S
C4     O15     1.256   .     A
C4     C156    1.481   .     S
C4     O16     1.265   1_556 A
O5     C14     1.208   .     D
O6     C17     1.261   .     A
O7     Y0      2.245   1_556 S
O7     C17     1.257   1_556 A
O8     C12     1.283   .     A
O9     C19     1.375   .     S
O9     Y1      2.255   1_554 S
O10    C19     1.212   .     D
O11    C18     1.286   .     A
C12    C123    1.479   .     S
C12    O2      1.287   1_556 A
O13    C18     1.281   1_556 A
C14    C63     1.471   .     S
O16    Y1      2.282   1_554 S
O16    C4      1.265   1_554 A
C17    C147    1.476   .     S
C17    O7      1.257   1_554 A
C18    O13     1.281   1_554 A
C18    C96     1.478   1_554 S
C19    C60     1.476   .     S
Y20    O26     2.242   .     S
Y20    O30     2.272   .     S
Y20    O31     2.274   .     S
Y20    O22     2.252   1_655 S
Y20    O23     2.289   1_554 S
Y20    O27     2.275   1_554 S
Y20    O29     2.265   1_655 S
Y21    O25     2.261   .     S
Y21    O28     2.270   .     S
Y21    O35     2.259   .     S
Y21    O23     2.267   1_455 S
Y21    O29     2.263   1_556 S
Y21    O33     2.249   1_455 S
Y21    O36     2.254   1_556 S
O22    Y20     2.252   1_455 S
O22    C32     1.283   1_554 A
O23    Y20     2.289   1_556 S
O23    Y21     2.267   1_655 S
O23    C34     1.379   1_655 S
C24    O35     1.258   .     A
C24    O36     1.257   1_556 A
C24    C99     1.472   1_556 S
O25    C34     1.208   .     D
O26    C37     1.256   .     A
O27    Y20     2.275   1_556 S
O27    C37     1.262   1_556 A
O28    C32     1.284   .     A
O29    C39     1.376   .     S
O29    Y20     2.265   1_455 S
O29    Y21     2.263   1_554 S
O30    C39     1.211   1_655 D
O31    C38     1.285   .     A
C32    O22     1.283   1_556 A
C32    C135    1.468   1_556 S
O33    Y21     2.249   1_655 S
O33    C38     1.283   1_556 A
C34    C72     1.488   .     S
C34    O23     1.379   1_455 S
O36    Y21     2.254   1_554 S
O36    C24     1.257   1_554 A
C37    C120    1.482   .     S
C37    O27     1.262   1_554 A
C38    C108    1.478   .     S
C38    O33     1.283   1_554 A
C39    C75     1.479   .     S
C39    O30     1.211   1_455 D
Y40    O46     2.221   .     S
Y40    O50     2.244   .     S
Y40    O51     2.250   .     S
Y40    O42     2.246   1_545 S
Y40    O43     2.247   1_556 S
Y40    O47     2.292   1_556 S
Y40    O49     2.271   1_545 S
Y41    O45     2.261   .     S
Y41    O48     2.260   .     S
Y41    O55     2.263   .     S
Y41    O43     2.253   1_565 S
Y41    O49     2.278   1_554 S
Y41    O53     2.266   1_565 S
Y41    O56     2.260   1_554 S
O42    Y40     2.246   1_565 S
O42    C52     1.284   1_556 A
O43    C54     1.371   .     S
O43    Y40     2.247   1_554 S
O43    Y41     2.253   1_545 S
C44    O55     1.263   .     A
C44    O56     1.263   1_554 A
C44    C144    1.484   1_554 S
O45    C54     1.206   1_565 D
O46    C57     1.264   .     A
O47    Y40     2.292   1_554 S
O47    C57     1.279   1_554 A
O48    C52     1.286   .     A
O49    C59     1.379   .     S
O49    Y40     2.271   1_565 S
O49    Y41     2.278   1_556 S
O50    C59     1.208   1_545 D
O51    C58     1.282   .     A
C52    O42     1.284   1_554 A
C52    C132    1.490   1_554 S
O53    Y41     2.266   1_545 S
O53    C58     1.285   1_554 A
C54    O45     1.206   1_545 D
C54    C84     1.472   1_545 S
O56    Y41     2.260   1_556 S
O56    C44     1.263   1_556 A
C57    C159    1.473   .     S
C57    O47     1.279   1_556 A
C58    C111    1.485   .     S
C58    O53     1.285   1_556 A
C59    O50     1.208   1_565 D
C59    C87     1.461   1_565 S
C60    C61     1.407   .     A
C60    C65     1.407   .     A
C61    C62     1.398   .     A
C61    N68     1.429   .     S
C62    C63     1.403   .     A
C62    H71     1.084   .     S
C63    C64     1.400   .     A
C64    C65     1.399   .     A
C64    H69     1.082   .     S
C65    H70     1.082   .     S
O66    N68     1.304   .     A
O67    N68     1.302   .     A
C72    C73     1.424   .     A
C72    C77     1.403   1_455 A
C73    C74     1.407   .     A
C73    N80     1.439   .     S
C74    C75     1.398   .     A
C74    H83     1.084   .     S
C75    C76     1.401   1_455 A
C76    C77     1.400   .     A
C76    H81     1.083   .     S
C76    C75     1.401   1_655 A
C77    H82     1.083   .     S
C77    C72     1.403   1_655 A
O78    N80     1.303   .     A
O79    N80     1.302   .     A
C84    C85     1.421   .     A
C84    C89     1.403   1_565 A
C84    C54     1.472   1_565 S
C85    C86     1.402   .     A
C85    N92     1.440   .     S
C86    H95     1.076   .     S
C86    C87     1.394   1_565 A
C87    C88     1.400   .     A
C87    C86     1.394   1_545 A
C87    C59     1.461   1_545 S
C88    C89     1.391   .     A
C88    H93     1.085   .     S
C89    H94     1.084   .     S
C89    C84     1.403   1_545 A
O90    N92     1.304   .     A
O91    N92     1.303   .     A
C96    C97     1.418   .     A
C96    C101    1.404   1_556 A
C96    C18     1.478   1_556 S
C97    C98     1.406   .     A
C97    N104    1.433   .     S
C98    H107    1.083   .     S
C98    C99     1.401   1_556 A
C99    C100    1.401   .     A
C99    C98     1.401   1_554 A
C99    C24     1.472   1_554 S
C100   C101    1.394   .     A
C100   H105    1.083   .     S
C101   H106    1.084   .     S
C101   C96     1.404   1_554 A
O102   N104    1.301   .     A
O103   N104    1.299   .     A
C108   C109    1.416   .     A
C108   C113    1.406   1_554 A
C109   C110    1.402   .     A
C109   N116    1.438   .     S
C110   H119    1.083   .     S
C110   C111    1.408   1_554 A
C111   C112    1.403   .     A
C111   C110    1.408   1_556 A
C112   C113    1.401   .     A
C112   H117    1.082   .     S
C113   H118    1.084   .     S
C113   C108    1.406   1_556 A
O114   N116    1.300   .     A
O115   N116    1.302   .     A
C120   C125    1.403   .     A
C120   C121    1.421   1_554 A
C121   C122    1.414   .     A
C121   N128    1.439   .     S
C121   C120    1.421   1_556 A
C122   C123    1.406   .     A
C122   H131    1.083   .     S
C123   C124    1.402   1_556 A
C124   C125    1.388   .     A
C124   H129    1.084   .     S
C124   C123    1.402   1_554 A
C125   H130    1.084   .     S
O126   N128    1.301   .     A
O127   N128    1.301   .     A
C132   C133    1.422   .     A
C132   C137    1.411   1_556 A
C132   C52     1.490   1_556 S
C133   C134    1.399   .     A
C133   N140    1.435   .     S
C134   H143    1.083   .     S
C134   C135    1.399   1_556 A
C135   C136    1.399   .     A
C135   C134    1.399   1_554 A
C135   C32     1.468   1_554 S
C136   C137    1.399   .     A
C136   H141    1.083   .     S
C137   H142    1.082   .     S
C137   C132    1.411   1_554 A
O138   N140    1.301   .     A
O139   N140    1.303   .     A
C144   C149    1.408   .     A
C144   C145    1.422   1_556 A
C144   C44     1.484   1_556 S
C145   C146    1.410   .     A
C145   C144    1.422   1_554 A
C145   N152    1.436   1_554 S
C146   C147    1.405   .     A
C146   H155    1.084   .     S
C147   C148    1.401   1_554 A
C148   C149    1.394   .     A
C148   H153    1.085   .     S
C148   C147    1.401   1_556 A
C149   H154    1.084   .     S
O150   N152    1.299   1_554 A
O151   N152    1.301   .     A
N152   C145    1.436   1_556 S
N152   O150    1.299   1_556 A
C156   C157    1.417   .     A
C156   C161    1.411   1_556 A
C157   C158    1.390   .     A
C157   N164    1.433   .     S
C158   C159    1.402   .     A
C158   H167    1.087   .     S
C159   C160    1.404   1_556 A
C160   C161    1.408   .     A
C160   H165    1.082   .     S
C160   C159    1.404   1_554 A
C161   H166    1.081   .     S
C161   C156    1.411   1_554 A
O162   N164    1.304   .     A
O163   N164    1.304   .     A
