data_kag+N394+E1
_audit_creation_date              2025-01-21
_audit_creation_method            'Materials Studio'
_symmetry_space_group_name_H-M    'P1'
_symmetry_Int_Tables_number       1
_symmetry_cell_setting            triclinic
loop_
_symmetry_equiv_pos_as_xyz
  x,y,z
_cell_length_a                    39.9422
_cell_length_b                    42.0913
_cell_length_c                    18.6760
_cell_angle_alpha                 96.5960
_cell_angle_beta                  95.4968
_cell_angle_gamma                 114.4781
loop_
_atom_site_label
_atom_site_type_symbol
_atom_site_fract_x
_atom_site_fract_y
_atom_site_fract_z
_atom_site_U_iso_or_equiv
_atom_site_adp_type
_atom_site_occupancy
Pr0    Pr    0.51922   0.54169  -0.01940   0.00000  Uiso   1.00
Pr1    Pr    0.49539   0.46256   1.01037   0.00000  Uiso   1.00
O2     O     0.44092   0.46840   1.02325   0.00000  Uiso   1.00
O3     O     0.45870   0.52605   0.00398   0.00000  Uiso   1.00
O4     O     0.51680   0.58263   0.91343   0.00000  Uiso   1.00
O5     O     0.54902   0.60098   0.02114   0.00000  Uiso   1.00
O6     O     0.53063   0.51675   0.07527   0.00000  Uiso   1.00
O7     O     0.50023   0.54711   0.09354   0.00000  Uiso   1.00
C8     C     0.50103   0.47495   0.86874   0.00000  Uiso   1.00
C9     C     0.43425   0.49590   0.01696   0.00000  Uiso   1.00
C10    C     0.53713   0.60909   0.96323   0.00000  Uiso   1.00
C11    C     0.47971   0.39581   0.02982   0.00000  Uiso   1.00
C12    C     0.58028   0.50860   0.97336   0.00000  Uiso   1.00
C13    C     0.51285   0.52927   0.12201   0.00000  Uiso   1.00
O14    O     0.57341   0.53581  -0.03437   0.00000  Uiso   1.00
O15    O     0.55599   0.47866   0.98750   0.00000  Uiso   1.00
O16    O     0.49978   0.42281   0.07850   0.00000  Uiso   1.00
O17    O     0.46635   0.40287   0.97199   0.00000  Uiso   1.00
O18    O     0.48354   0.48752   0.91597   0.00000  Uiso   1.00
O19    O     0.51367   0.45703   0.89672   0.00000  Uiso   1.00
Pr20   Pr    0.98310   0.45802   1.01210   0.00000  Uiso   1.00
Pr21   Pr    0.02837   0.53866  -0.00855   0.00000  Uiso   1.00
O22    O     0.96765   0.53199  -0.03568   0.00000  Uiso   1.00
O23    O     0.93540   0.47371   0.97804   0.00000  Uiso   1.00
O24    O     0.94531   0.41584   0.07016   0.00000  Uiso   1.00
O25    O     0.95901   0.39896   0.96849   0.00000  Uiso   1.00
O26    O     0.01500   0.48545   0.92692   0.00000  Uiso   1.00
O27    O     0.95718   0.45444   0.89252   0.00000  Uiso   1.00
C28    C     0.02529   0.52358   0.13168   0.00000  Uiso   1.00
C29    C     0.93688   0.50413   0.96557   0.00000  Uiso   1.00
C30    C     0.94053   0.39003   0.02081   0.00000  Uiso   1.00
C31    C     0.07041   0.60669   0.98251   0.00000  Uiso   1.00
C32    C     0.07486   0.49322   0.03980   0.00000  Uiso   1.00
C33    C    -0.01462   0.47319   0.87211   0.00000  Uiso   1.00
O34    O     0.04410   0.46506   1.03958   0.00000  Uiso   1.00
O35    O     0.07622   0.52354   0.02698   0.00000  Uiso   1.00
O36    O     0.06600   0.58094   0.93334   0.00000  Uiso   1.00
O37    O     0.05212   0.59762   0.03499   0.00000  Uiso   1.00
O38    O     0.99602   0.51113   0.07621   0.00000  Uiso   1.00
O39    O     0.05356   0.54254   0.11184   0.00000  Uiso   1.00
Pr40   Pr    0.54424   0.02431  -0.01118   0.00000  Uiso   1.00
Pr41   Pr    0.46062   0.97524   1.00928   0.00000  Uiso   1.00
O42    O     0.46179   0.03087   0.03512   0.00000  Uiso   1.00
O43    O     0.52284   0.06621   0.02487   0.00000  Uiso   1.00
O44    O     0.58696   0.06277   0.93144   0.00000  Uiso   1.00
O45    O     0.60619   0.05140   0.03267   0.00000  Uiso   1.00
O46    O     0.51736   0.99262   0.07379   0.00000  Uiso   1.00
O47    O     0.54542   0.04810   0.10858   0.00000  Uiso   1.00
C48    C     0.47693   0.97970   0.86904   0.00000  Uiso   1.00
C49    C     0.48949   0.06157   0.03618   0.00000  Uiso   1.00
C50    C     0.61448   0.06911   0.98067   0.00000  Uiso   1.00
C51    C     0.39060   0.93051   0.01885   0.00000  Uiso   1.00
C52    C     0.51507   0.93774   0.96198   0.00000  Uiso   1.00
C53    C     0.52778   0.02065   0.12883   0.00000  Uiso   1.00
O54    O     0.54252   0.96834   0.96056   0.00000  Uiso   1.00
O55    O     0.48216   0.93350   0.97531   0.00000  Uiso   1.00
O56    O     0.41828   0.93724   0.06795   0.00000  Uiso   1.00
O57    O     0.39862   0.94774   0.96609   0.00000  Uiso   1.00
O58    O     0.48759   0.00740   0.92476   0.00000  Uiso   1.00
O59    O     0.45894   0.95219   0.88857   0.00000  Uiso   1.00
C60    C     0.50670   0.51151   0.34368   0.00000  Uiso   1.00
C61    C     0.48902   0.53078   0.31337   0.00000  Uiso   1.00
C62    C     0.49066   0.53626   0.24106   0.00000  Uiso   1.00
C63    C     0.50996   0.52255   0.19751   0.00000  Uiso   1.00
C64    C     0.52704   0.50277   0.22700   0.00000  Uiso   1.00
C65    C     0.52545   0.49730   0.29930   0.00000  Uiso   1.00
C66    C     0.50611   0.50666   0.42143   0.00000  Uiso   1.00
C67    C     0.50324   0.47468   0.44225   0.00000  Uiso   1.00
C68    C     0.50355   0.47041   0.51543   0.00000  Uiso   1.00
C69    C     0.50659   0.49796   0.56971   0.00000  Uiso   1.00
C70    C     0.50937   0.52992   0.54895   0.00000  Uiso   1.00
C71    C     0.50911   0.53422   0.47575   0.00000  Uiso   1.00
C72    C     0.50636   0.49313   0.64743   0.00000  Uiso   1.00
C73    C     0.48716   0.50668   0.69193   0.00000  Uiso   1.00
C74    C     0.48585   0.50109   0.76418   0.00000  Uiso   1.00
C75    C     0.50366   0.48182   0.79338   0.00000  Uiso   1.00
C76    C     0.52341   0.46878   0.74970   0.00000  Uiso   1.00
C77    C     0.52475   0.47437   0.67744   0.00000  Uiso   1.00
H78    H     0.47373   0.54152   0.34543   0.00000  Uiso   1.00
H79    H     0.47700   0.55140   0.21931   0.00000  Uiso   1.00
H80    H     0.54208   0.49189   0.19446   0.00000  Uiso   1.00
H81    H     0.53968   0.48264   0.32091   0.00000  Uiso   1.00
H82    H     0.50024   0.45268   0.40182   0.00000  Uiso   1.00
H83    H     0.50076   0.44525   0.52932   0.00000  Uiso   1.00
H84    H     0.51234   0.55188   0.58948   0.00000  Uiso   1.00
H85    H     0.51199   0.55941   0.46193   0.00000  Uiso   1.00
H86    H     0.47241   0.52093   0.67045   0.00000  Uiso   1.00
H87    H     0.47044   0.51141   0.79688   0.00000  Uiso   1.00
H88    H     0.53768   0.45412   0.77133   0.00000  Uiso   1.00
H89    H     0.54033   0.46412   0.64517   0.00000  Uiso   1.00
C90    C    -0.00461   0.49098   0.65196   0.00000  Uiso   1.00
C91    C     0.96029   0.47068   0.67040   0.00000  Uiso   1.00
C92    C     0.95668   0.46547   0.74242   0.00000  Uiso   1.00
C93    C    -0.01190   0.48047   0.79717   0.00000  Uiso   1.00
C94    C     0.02293   0.50146   0.77932   0.00000  Uiso   1.00
C95    C     0.02657   0.50665   0.70749   0.00000  Uiso   1.00
C96    C    -0.00020   0.49513   0.57500   0.00000  Uiso   1.00
C97    C     0.02475   0.52747   0.55826   0.00000  Uiso   1.00
C98    C     0.02976   0.53100   0.48609   0.00000  Uiso   1.00
C99    C     0.00984   0.50233   0.42892   0.00000  Uiso   1.00
C100   C    -0.01507   0.46999   0.44568   0.00000  Uiso   1.00
C101   C    -0.02006   0.46644   0.51784   0.00000  Uiso   1.00
C102   C     0.01440   0.50636   0.35198   0.00000  Uiso   1.00
C103   C     0.98327   0.49091   0.29632   0.00000  Uiso   1.00
C104   C     0.98713   0.49590   0.22442   0.00000  Uiso   1.00
C105   C     0.02217   0.51644   0.20666   0.00000  Uiso   1.00
C106   C     0.05349   0.53122   0.26161   0.00000  Uiso   1.00
C107   C     0.04964   0.52625   0.33368   0.00000  Uiso   1.00
H108   H     0.93565   0.45871   0.62909   0.00000  Uiso   1.00
H109   H     0.92948   0.44924   0.75505   0.00000  Uiso   1.00
H110   H     0.04759   0.51322   0.82065   0.00000  Uiso   1.00
H111   H     0.05406   0.52207   0.69513   0.00000  Uiso   1.00
H112   H     0.04011   0.55024   0.60089   0.00000  Uiso   1.00
H113   H     0.04873   0.55642   0.47493   0.00000  Uiso   1.00
H114   H     0.96959   0.44723   0.40305   0.00000  Uiso   1.00
H115   H     0.96103   0.44100   0.52900   0.00000  Uiso   1.00
H116   H     0.95570   0.47579   0.30867   0.00000  Uiso   1.00
H117   H     0.96253   0.48430   0.18296   0.00000  Uiso   1.00
H118   H     0.08082   0.54700   0.24901   0.00000  Uiso   1.00
H119   H     0.07424   0.53803   0.37510   0.00000  Uiso   1.00
C120   C     0.51065   1.00978   0.34954   0.00000  Uiso   1.00
C121   C     0.52898   0.04360   0.33109   0.00000  Uiso   1.00
C122   C     0.53371   0.04738   0.25881   0.00000  Uiso   1.00
C123   C     0.52033   0.01739   0.20392   0.00000  Uiso   1.00
C124   C     0.50142   0.98370   0.22196   0.00000  Uiso   1.00
C125   C     0.49663   0.97991   0.29404   0.00000  Uiso   1.00
C126   C     0.50673   1.00545   0.42646   0.00000  Uiso   1.00
C127   C     0.47341   0.98050   0.44345   0.00000  Uiso   1.00
C128   C     0.46987   0.97587   0.51562   0.00000  Uiso   1.00
C129   C     0.49956   0.99609   0.57250   0.00000  Uiso   1.00
C130   C     0.53290   0.02110   0.55558   0.00000  Uiso   1.00
C131   C     0.53644   0.02573   0.48332   0.00000  Uiso   1.00
C132   C     0.49541   0.99157   0.64927   0.00000  Uiso   1.00
C133   C     0.50925   0.02126   0.70518   0.00000  Uiso   1.00
C134   C     0.50394   0.01717   0.77697   0.00000  Uiso   1.00
C135   C     0.48463  -0.01666   0.79421   0.00000  Uiso   1.00
C136   C     0.47136   0.95357   0.73888   0.00000  Uiso   1.00
C137   C     0.47667   0.95765   0.66700   0.00000  Uiso   1.00
H138   H     0.53963   0.06713   0.37254   0.00000  Uiso   1.00
H139   H     0.54825   0.07366   0.24601   0.00000  Uiso   1.00
H140   H     0.49095   0.96016   0.18056   0.00000  Uiso   1.00
H141   H     0.48281   0.95350   0.30665   0.00000  Uiso   1.00
H142   H     0.44986   0.96485   0.40093   0.00000  Uiso   1.00
H143   H     0.44363   0.95682   0.52704   0.00000  Uiso   1.00
H144   H     0.55644   0.03670   0.59815   0.00000  Uiso   1.00
H145   H     0.56269   0.04472   0.47179   0.00000  Uiso   1.00
H146   H     0.52330   0.04775   0.69312   0.00000  Uiso   1.00
H147   H     0.51426   0.04056   0.81875   0.00000  Uiso   1.00
H148   H     0.45640   0.92721   0.75099   0.00000  Uiso   1.00
H149   H     0.46612   0.93426   0.62524   0.00000  Uiso   1.00
C150   C     0.32472   0.48870   0.03624   0.00000  Uiso   1.00
C151   C     0.35507   0.52166   0.03892   0.00000  Uiso   1.00
C152   C     0.39056   0.52393   0.03362   0.00000  Uiso   1.00
C153   C     0.39675   0.49327   0.02584   0.00000  Uiso   1.00
C154   C     0.36660   0.46030   1.02456   0.00000  Uiso   1.00
C155   C     0.33095   0.45805   1.02972   0.00000  Uiso   1.00
C156   C     0.28678   0.48664   0.03900   0.00000  Uiso   1.00
C157   C     0.26229   0.46363   1.07918   0.00000  Uiso   1.00
C158   C     0.22740   0.46341   1.08437   0.00000  Uiso   1.00
C159   C     0.21644   0.48626   0.04965   0.00000  Uiso   1.00
C160   C     0.24051   0.50844   0.00782   0.00000  Uiso   1.00
C161   C     0.27515   0.50859   0.00247   0.00000  Uiso   1.00
C162   C     0.18032   0.48762   0.05678   0.00000  Uiso   1.00
C163   C     0.17862   0.52046   0.06660   0.00000  Uiso   1.00
C164   C     0.14445   0.52218   0.06485   0.00000  Uiso   1.00
C165   C     0.11100   0.49105   0.05320   0.00000  Uiso   1.00
C166   C     0.11275   0.45817   1.04771   0.00000  Uiso   1.00
C167   C     0.14716   0.45649   1.04964   0.00000  Uiso   1.00
H168   H     0.35143   0.54587   0.04545   0.00000  Uiso   1.00
H169   H     0.41317   0.54982   0.03553   0.00000  Uiso   1.00
H170   H     0.37039   0.43616   1.01817   0.00000  Uiso   1.00
H171   H     0.30811   0.43224   1.02678   0.00000  Uiso   1.00
H172   H     0.27046   0.44647   1.10811   0.00000  Uiso   1.00
H173   H     0.20941   0.44604   1.11699   0.00000  Uiso   1.00
H174   H     0.23243   0.52563  -0.02125   0.00000  Uiso   1.00
H175   H     0.29283   0.52588  -0.03066   0.00000  Uiso   1.00
H176   H     0.20379   0.54492   0.07408   0.00000  Uiso   1.00
H177   H     0.14426   0.54801   0.07045   0.00000  Uiso   1.00
H178   H     0.08750   0.43372   1.03876   0.00000  Uiso   1.00
H179   H     0.14767   0.43082   1.04203   0.00000  Uiso   1.00
C180   C     0.85698   0.28429   1.01551   0.00000  Uiso   1.00
C181   C     0.86218   0.31196   0.07175   0.00000  Uiso   1.00
C182   C     0.89048   0.34592   0.07524   0.00000  Uiso   1.00
C183   C     0.91400   0.35316   0.02214   0.00000  Uiso   1.00
C184   C     0.90970   0.32542   0.96718   0.00000  Uiso   1.00
C185   C     0.88162   0.29130   0.96411   0.00000  Uiso   1.00
C186   C     0.82474   0.24897   1.00833   0.00000  Uiso   1.00
C187   C     0.80538   0.22969   0.93904   0.00000  Uiso   1.00
C188   C     0.77337   0.19793   0.93215   0.00000  Uiso   1.00
C189   C     0.75949   0.18482   0.99431   0.00000  Uiso   1.00
C190   C     0.77944   0.20355   0.06362   0.00000  Uiso   1.00
C191   C     0.81176   0.23510   0.07051   0.00000  Uiso   1.00
C192   C     0.72327   0.15302   0.98698   0.00000  Uiso   1.00
C193   C     0.71724   0.12927   0.03680   0.00000  Uiso   1.00
C194   C     0.68214   0.10122   0.03332   0.00000  Uiso   1.00
C195   C     0.65247   0.09614   0.97958   0.00000  Uiso   1.00
C196   C     0.65878   0.11890   0.92801   0.00000  Uiso   1.00
C197   C     0.69369   0.14715   0.93194   0.00000  Uiso   1.00
H198   H     0.84341   0.30783   0.11150   0.00000  Uiso   1.00
H199   H     0.89302   0.36684   0.11804   0.00000  Uiso   1.00
H200   H     0.92746   0.33026   0.92551   0.00000  Uiso   1.00
H201   H     0.87889   0.27053   0.92082   0.00000  Uiso   1.00
H202   H     0.81417   0.23968   0.88989   0.00000  Uiso   1.00
H203   H     0.75916   0.18390   0.87792   0.00000  Uiso   1.00
H204   H     0.76947   0.19452   0.11279   0.00000  Uiso   1.00
H205   H     0.82626   0.24889   0.12474   0.00000  Uiso   1.00
H206   H     0.73951   0.13257   0.07908   0.00000  Uiso   1.00
H207   H     0.67804   0.08392   0.07358   0.00000  Uiso   1.00
H208   H     0.63634   0.11569   0.88618   0.00000  Uiso   1.00
H209   H     0.69702   0.16515   0.89337   0.00000  Uiso   1.00
C210   C     0.83414   0.51501   0.95383   0.00000  Uiso   1.00
C211   C     0.83570   0.48376  -0.03083   0.00000  Uiso   1.00
C212   C     0.86862   0.47975  -0.03053   0.00000  Uiso   1.00
C213   C     0.90108   0.50713   0.95524   0.00000  Uiso   1.00
C214   C     0.89927   0.53805   0.93747   0.00000  Uiso   1.00
C215   C     0.86596   0.54183   0.93623   0.00000  Uiso   1.00
C216   C     0.79949   0.51951   0.95871   0.00000  Uiso   1.00
C217   C     0.78399   0.53151   0.90309   0.00000  Uiso   1.00
C218   C     0.74929   0.53218   0.90513   0.00000  Uiso   1.00
C219   C     0.72964   0.52098   0.96303   0.00000  Uiso   1.00
C220   C     0.74625   0.51083   0.02041   0.00000  Uiso   1.00
C221   C     0.78064   0.50995   0.01812   0.00000  Uiso   1.00
C222   C     0.69111   0.51775   0.96227   0.00000  Uiso   1.00
C223   C     0.66420   0.48830  -0.01508   0.00000  Uiso   1.00
C224   C     0.62819   0.48512  -0.01326   0.00000  Uiso   1.00
C225   C     0.61801   0.51139   0.96631   0.00000  Uiso   1.00
C226   C     0.64461   0.54057   0.94199   0.00000  Uiso   1.00
C227   C     0.68079   0.54361   0.93969   0.00000  Uiso   1.00
H228   H     0.81143   0.46245  -0.01815   0.00000  Uiso   1.00
H229   H     0.86881   0.45551  -0.01678   0.00000  Uiso   1.00
H230   H     0.92374   0.55962   0.92615   0.00000  Uiso   1.00
H231   H     0.86539   0.56615   0.92407   0.00000  Uiso   1.00
H232   H     0.79801   0.53900   0.85671   0.00000  Uiso   1.00
H233   H     0.73720   0.54010   0.86010   0.00000  Uiso   1.00
H234   H     0.73237   0.50306   0.06685   0.00000  Uiso   1.00
H235   H     0.79236   0.50137   0.06257   0.00000  Uiso   1.00
H236   H     0.67099   0.46755   0.00123   0.00000  Uiso   1.00
H237   H     0.60846   0.46220   0.00544   0.00000  Uiso   1.00
H238   H     0.63758   0.56114   0.92532   0.00000  Uiso   1.00
H239   H     0.70089   0.56656   0.92184   0.00000  Uiso   1.00
C240   C     0.28248   0.84635   1.01517   0.00000  Uiso   1.00
C241   C     0.28797   0.86984   0.96492   0.00000  Uiso   1.00
C242   C     0.32285   0.89802   0.96757   0.00000  Uiso   1.00
C243   C     0.35280   0.90351   0.02099   0.00000  Uiso   1.00
C244   C     0.34699   0.88111   0.07320   0.00000  Uiso   1.00
C245   C     0.31229   0.85273   0.07012   0.00000  Uiso   1.00
C246   C     0.24673   0.81411   1.00787   0.00000  Uiso   1.00
C247   C     0.23309   0.80076   0.06998   0.00000  Uiso   1.00
C248   C     0.20162   0.76855   0.06293   0.00000  Uiso   1.00
C249   C     0.18262   0.74910   0.99356   0.00000  Uiso   1.00
C250   C     0.19530   0.76321   0.93145   0.00000  Uiso   1.00
C251   C     0.22710   0.79518   0.93849   0.00000  Uiso   1.00
C252   C     0.15116   0.71337   0.98630   0.00000  Uiso   1.00
C253   C     0.14708   0.68584   0.93076   0.00000  Uiso   1.00
C254   C     0.11976   0.65145   0.92782   0.00000  Uiso   1.00
C255   C     0.09611   0.64373   0.98066   0.00000  Uiso   1.00
C256   C     0.09924   0.67133   0.03472   0.00000  Uiso   1.00
C257   C     0.12634   0.70583   0.03728   0.00000  Uiso   1.00
H258   H     0.26549   0.86616   0.92277   0.00000  Uiso   1.00
H259   H     0.32658   0.91505   0.92685   0.00000  Uiso   1.00
H260   H     0.36967   0.88465   0.11481   0.00000  Uiso   1.00
H261   H     0.30935   0.83497   0.10908   0.00000  Uiso   1.00
H262   H     0.24710   0.81489   0.12426   0.00000  Uiso   1.00
H263   H     0.19303   0.75834   0.11200   0.00000  Uiso   1.00
H264   H     0.18103   0.74925   0.87719   0.00000  Uiso   1.00
H265   H     0.23699   0.80437   0.88937   0.00000  Uiso   1.00
H266   H     0.16599   0.69049   0.89122   0.00000  Uiso   1.00
H267   H     0.11809   0.63065   0.88572   0.00000  Uiso   1.00
H268   H     0.08128   0.66612   0.07602   0.00000  Uiso   1.00
H269   H     0.12822   0.72649   0.07994   0.00000  Uiso   1.00
C270   C     0.53500   0.84445   0.94249   0.00000  Uiso   1.00
C271   C     0.56081   0.87561   0.92309   0.00000  Uiso   1.00
C272   C     0.55419   0.90596   0.92747   0.00000  Uiso   1.00
C273   C     0.52138   0.90534   0.95026   0.00000  Uiso   1.00
C274   C     0.49506   0.87359  -0.03326   0.00000  Uiso   1.00
C275   C     0.50184   0.84361  -0.03697   0.00000  Uiso   1.00
C276   C     0.54280   0.81311   0.94509   0.00000  Uiso   1.00
C277   C     0.53702   0.79641   0.00664   0.00000  Uiso   1.00
C278   C     0.54129   0.76527   0.00816   0.00000  Uiso   1.00
C279   C     0.55130   0.74995   0.94802   0.00000  Uiso   1.00
C280   C     0.55799   0.76707   0.88692   0.00000  Uiso   1.00
C281   C     0.55403   0.79859   0.88570   0.00000  Uiso   1.00
C282   C     0.55225   0.71508   0.94817   0.00000  Uiso   1.00
C283   C     0.53471   0.68786   0.88742   0.00000  Uiso   1.00
C284   C     0.53101   0.65359   0.89130   0.00000  Uiso   1.00
C285   C     0.54491   0.64597   0.95587   0.00000  Uiso   1.00
C286   C     0.56417   0.67359   0.01523   0.00000  Uiso   1.00
C287   C     0.56774   0.70778   0.01146   0.00000  Uiso   1.00
H288   H     0.58660   0.87681   0.90707   0.00000  Uiso   1.00
H289   H     0.57500   0.92999   0.91443   0.00000  Uiso   1.00
H290   H     0.46954   0.87204  -0.01519   0.00000  Uiso   1.00
H291   H     0.48127   0.81976  -0.02271   0.00000  Uiso   1.00
H292   H     0.52865   0.80727   0.05338   0.00000  Uiso   1.00
H293   H     0.53544   0.75248   0.05555   0.00000  Uiso   1.00
H294   H     0.56590   0.75589   0.83995   0.00000  Uiso   1.00
H295   H     0.55852   0.81097   0.83757   0.00000  Uiso   1.00
H296   H     0.52226   0.69266   0.83817   0.00000  Uiso   1.00
H297   H     0.51611   0.63280   0.84466   0.00000  Uiso   1.00
H298   H     0.57537   0.66854   0.06554   0.00000  Uiso   1.00
H299   H     0.58179   0.72837   0.05877   0.00000  Uiso   1.00
C300   C     0.46765   0.29091   0.04983   0.00000  Uiso   1.00
C301   C     0.49549   0.32094   0.09610   0.00000  Uiso   1.00
C302   C     0.49836   0.35481   0.09115   0.00000  Uiso   1.00
C303   C     0.47405   0.35960   0.03871   0.00000  Uiso   1.00
C304   C     0.44595   0.32979   0.99285   0.00000  Uiso   1.00
C305   C     0.44255   0.29575   0.99882   0.00000  Uiso   1.00
C306   C     0.46586   0.25500   0.05326   0.00000  Uiso   1.00
C307   C     0.45527   0.22955   0.98938   0.00000  Uiso   1.00
C308   C     0.45602   0.19680   0.99187   0.00000  Uiso   1.00
C309   C     0.46798   0.18901   0.05790   0.00000  Uiso   1.00
C310   C     0.47800   0.21395   0.12194   0.00000  Uiso   1.00
C311   C     0.47652   0.24644   0.11985   0.00000  Uiso   1.00
C312   C     0.47229   0.15588   0.05878   0.00000  Uiso   1.00
C313   C     0.50701   0.15727   0.08551   0.00000  Uiso   1.00
C314   C     0.51232   0.12638   0.08015   0.00000  Uiso   1.00
C315   C     0.48278   0.09350   0.04928   0.00000  Uiso   1.00
C316   C     0.44761   0.09194   1.02529   0.00000  Uiso   1.00
C317   C     0.44253   0.12300   1.02922   0.00000  Uiso   1.00
H318   H     0.51594   0.31856   0.13481   0.00000  Uiso   1.00
H319   H     0.52061   0.37740   0.12658   0.00000  Uiso   1.00
H320   H     0.42675   0.33279   0.95211   0.00000  Uiso   1.00
H321   H     0.42035   0.27330   0.96317   0.00000  Uiso   1.00
H322   H     0.44758   0.23528   0.93689   0.00000  Uiso   1.00
H323   H     0.44859   0.17800   0.94171   0.00000  Uiso   1.00
H324   H     0.48702   0.20826   0.17356   0.00000  Uiso   1.00
H325   H     0.48401   0.26490   0.17048   0.00000  Uiso   1.00
H326   H     0.53043   0.18244   0.10781   0.00000  Uiso   1.00
H327   H     0.53972   0.12824   0.09881   0.00000  Uiso   1.00
H328   H     0.42451   0.06697   1.00043   0.00000  Uiso   1.00
H329   H     0.41558   0.12147   1.00821   0.00000  Uiso   1.00
loop_
_geom_bond_atom_site_label_1
_geom_bond_atom_site_label_2
_geom_bond_distance
_geom_bond_site_symmetry_2
_ccdc_geom_bond_type
Pr0    O3      2.327   .     S
Pr0    O5      2.269   .     S
Pr0    O6      2.259   .     S
Pr0    O7      2.327   .     S
Pr0    O14     2.317   .     S
Pr0    O4      2.272   1_554 S
Pr0    O18     2.243   1_554 S
Pr1    O2      2.320   .     S
Pr1    O15     2.325   .     S
Pr1    O17     2.277   .     S
Pr1    O18     2.261   .     S
Pr1    O19     2.327   .     S
Pr1    O6      2.243   1_556 S
Pr1    O16     2.267   1_556 S
O2     C9      1.306   1_556 A
O3     C9      1.308   .     A
O4     C10     1.278   .     A
O4     Pr0     2.272   1_556 S
O5     C10     1.278   1_554 A
O6     C13     1.366   .     S
O6     Pr1     2.243   1_554 S
O7     C13     1.206   .     D
C8     O18     1.365   .     S
C8     O19     1.205   .     D
C8     C75     1.474   .     S
C9     C153    1.483   .     S
C9     O2      1.306   1_554 A
C10    C285    1.478   .     S
C10    O5      1.278   1_556 A
C11    O16     1.276   .     A
C11    C303    1.477   .     S
C11    O17     1.278   1_554 A
C12    O15     1.308   .     A
C12    C225    1.482   .     S
C12    O14     1.303   1_556 A
C13    C63     1.475   .     S
O14    C12     1.303   1_554 A
O16    Pr1     2.267   1_554 S
O17    C11     1.278   1_556 A
O18    Pr0     2.243   1_556 S
Pr20   O23     2.319   .     S
Pr20   O25     2.274   .     S
Pr20   O27     2.331   .     S
Pr20   O24     2.267   1_556 S
Pr20   O26     2.254   1_655 S
Pr20   O34     2.327   1_655 S
Pr20   O38     2.238   1_556 S
Pr21   O35     2.315   .     S
Pr21   O37     2.271   .     S
Pr21   O39     2.332   .     S
Pr21   O22     2.321   1_455 S
Pr21   O26     2.240   1_554 S
Pr21   O36     2.268   1_554 S
Pr21   O38     2.256   1_455 S
O22    Pr21    2.321   1_655 S
O22    C29     1.305   1_554 A
O23    C29     1.306   .     A
O24    C30     1.277   .     A
O24    Pr20    2.267   1_554 S
O25    C30     1.278   1_556 A
O26    C33     1.362   .     S
O26    Pr20    2.254   1_455 S
O26    Pr21    2.240   1_556 S
O27    C33     1.205   1_655 D
C28    O39     1.204   .     D
C28    C105    1.472   .     S
C28    O38     1.360   1_455 S
C29    C213    1.483   .     S
C29    O22     1.305   1_556 A
C30    C183    1.478   .     S
C30    O25     1.278   1_554 A
C31    O36     1.277   .     A
C31    C255    1.476   .     S
C31    O37     1.278   1_556 A
C32    O35     1.306   .     A
C32    C165    1.483   .     S
C32    O34     1.306   1_554 A
C33    C93     1.471   .     S
C33    O27     1.205   1_455 D
O34    Pr20    2.327   1_455 S
O34    C32     1.306   1_556 A
O36    Pr21    2.268   1_556 S
O37    C31     1.278   1_554 A
O38    Pr20    2.238   1_554 S
O38    Pr21    2.256   1_655 S
O38    C28     1.360   1_655 S
Pr40   O43     2.320   .     S
Pr40   O45     2.270   .     S
Pr40   O47     2.331   .     S
Pr40   O44     2.268   1_554 S
Pr40   O46     2.253   1_545 S
Pr40   O54     2.325   1_544 S
Pr40   O58     2.238   1_554 S
Pr41   O55     2.308   .     S
Pr41   O57     2.270   .     S
Pr41   O59     2.333   .     S
Pr41   O42     2.316   1_566 S
Pr41   O46     2.241   1_556 S
Pr41   O56     2.266   1_556 S
Pr41   O58     2.257   1_565 S
O42    C49     1.304   .     A
O42    Pr41    2.316   1_544 S
O43    C49     1.306   .     A
O44    C50     1.277   .     A
O44    Pr40    2.268   1_556 S
O45    C50     1.277   1_554 A
O46    Pr40    2.253   1_565 S
O46    Pr41    2.241   1_554 S
O46    C53     1.362   1_565 S
O47    C53     1.205   .     D
C48    O59     1.204   .     D
C48    O58     1.360   1_565 S
C48    C135    1.471   1_565 S
C49    C315    1.474   .     S
C50    C195    1.476   .     S
C50    O45     1.277   1_556 A
C51    O56     1.277   .     A
C51    C243    1.474   .     S
C51    O57     1.277   1_554 A
C52    O54     1.306   .     A
C52    O55     1.304   .     A
C52    C273    1.483   .     S
C53    C123    1.471   .     S
C53    O46     1.362   1_545 S
O54    Pr40    2.325   1_566 S
O56    Pr41    2.266   1_554 S
O57    C51     1.277   1_556 A
O58    Pr40    2.238   1_556 S
O58    Pr41    2.257   1_545 S
O58    C48     1.360   1_545 S
C60    C61     1.407   .     A
C60    C65     1.408   .     A
C60    C66     1.490   .     S
C61    C62     1.399   .     A
C61    H78     1.082   .     S
C62    C63     1.404   .     A
C62    H79     1.083   .     S
C63    C64     1.402   .     A
C64    C65     1.399   .     A
C64    H80     1.083   .     S
C65    H81     1.082   .     S
C66    C67     1.406   .     A
C66    C71     1.407   .     A
C67    C68     1.398   .     A
C67    H82     1.083   .     S
C68    C69     1.406   .     A
C68    H83     1.083   .     S
C69    C70     1.406   .     A
C69    C72     1.489   .     S
C70    C71     1.399   .     A
C70    H84     1.083   .     S
C71    H85     1.083   .     S
C72    C73     1.407   .     A
C72    C77     1.407   .     A
C73    C74     1.398   .     A
C73    H86     1.082   .     S
C74    C75     1.402   .     A
C74    H87     1.083   .     S
C75    C76     1.403   .     A
C76    C77     1.398   .     A
C76    H88     1.083   .     S
C77    H89     1.082   .     S
C90    C95     1.406   .     A
C90    C96     1.486   .     S
C90    C91     1.408   1_455 A
C91    C92     1.399   .     A
C91    H108    1.083   .     S
C91    C90     1.408   1_655 A
C92    H109    1.083   .     S
C92    C93     1.403   1_655 A
C93    C94     1.402   .     A
C93    C92     1.403   1_455 A
C94    C95     1.395   .     A
C94    H110    1.083   .     S
C95    H111    1.083   .     S
C96    C97     1.406   .     A
C96    C101    1.405   .     A
C97    C98     1.397   .     A
C97    H112    1.083   .     S
C98    C99     1.405   .     A
C98    H113    1.083   .     S
C99    C100    1.406   .     A
C99    C102    1.486   .     S
C100   C101    1.397   .     A
C100   H114    1.083   1_455 S
C101   H115    1.082   1_455 S
C102   C107    1.407   .     A
C102   C103    1.406   1_455 A
C103   C104    1.396   .     A
C103   H116    1.083   .     S
C103   C102    1.406   1_655 A
C104   H117    1.083   .     S
C104   C105    1.403   1_655 A
C105   C106    1.403   .     A
C105   C104    1.403   1_455 A
C106   C107    1.399   .     A
C106   H118    1.083   .     S
C107   H119    1.083   .     S
H114   C100    1.083   1_655 S
H115   C101    1.082   1_655 S
C120   C125    1.405   .     A
C120   C126    1.484   .     S
C120   C121    1.407   1_565 A
C121   C122    1.399   .     A
C121   H138    1.083   .     S
C121   C120    1.407   1_545 A
C122   C123    1.403   .     A
C122   H139    1.083   .     S
C123   C124    1.402   1_545 A
C124   C125    1.395   .     A
C124   H140    1.083   .     S
C124   C123    1.402   1_565 A
C125   H141    1.083   .     S
C126   C127    1.405   .     A
C126   C131    1.406   1_565 A
C127   C128    1.396   .     A
C127   H142    1.083   .     S
C128   C129    1.405   .     A
C128   H143    1.083   .     S
C129   C132    1.484   .     S
C129   C130    1.406   1_565 A
C130   C131    1.398   .     A
C130   H144    1.083   .     S
C130   C129    1.406   1_545 A
C131   H145    1.083   .     S
C131   C126    1.406   1_545 A
C132   C137    1.407   .     A
C132   C133    1.405   1_565 A
C133   C134    1.396   .     A
C133   H146    1.083   .     S
C133   C132    1.405   1_545 A
C134   C135    1.403   .     A
C134   H147    1.083   .     S
C135   C136    1.402   1_545 A
C135   C48     1.471   1_545 S
C136   C137    1.398   .     A
C136   H148    1.083   .     S
C136   C135    1.402   1_565 A
C137   H149    1.082   .     S
C150   C151    1.405   .     A
C150   C156    1.488   .     S
C150   C155    1.406   1_554 A
C151   C152    1.395   .     A
C151   H168    1.082   .     S
C152   C153    1.406   .     A
C152   H169    1.083   .     S
C153   C154    1.407   1_554 A
C154   C155    1.401   .     A
C154   H170    1.083   .     S
C154   C153    1.407   1_556 A
C155   H171    1.082   .     S
C155   C150    1.406   1_556 A
C156   C161    1.405   .     A
C156   C157    1.407   1_554 A
C157   C158    1.402   .     A
C157   H172    1.082   .     S
C157   C156    1.407   1_556 A
C158   H173    1.083   .     S
C158   C159    1.405   1_556 A
C159   C160    1.405   .     A
C159   C162    1.485   .     S
C159   C158    1.405   1_554 A
C160   C161    1.394   .     A
C160   H174    1.083   .     S
C161   H175    1.083   .     S
C162   C163    1.404   .     A
C162   C167    1.406   1_554 A
C163   C164    1.394   .     A
C163   H176    1.083   .     S
C164   C165    1.406   .     A
C164   H177    1.084   .     S
C165   C166    1.407   1_554 A
C166   C167    1.402   .     A
C166   H178    1.083   .     S
C166   C165    1.407   1_556 A
C167   H179    1.082   .     S
C167   C162    1.406   1_556 A
C180   C185    1.408   .     A
C180   C186    1.490   .     S
C180   C181    1.407   1_556 A
C181   C182    1.397   .     A
C181   H198    1.082   .     S
C181   C180    1.407   1_554 A
C182   C183    1.404   .     A
C182   H199    1.083   .     S
C183   C184    1.404   1_554 A
C184   C185    1.399   .     A
C184   H200    1.083   .     S
C184   C183    1.404   1_556 A
C185   H201    1.082   .     S
C186   C187    1.407   .     A
C186   C191    1.407   1_556 A
C187   C188    1.397   .     A
C187   H202    1.082   .     S
C188   C189    1.406   .     A
C188   H203    1.082   .     S
C189   C192    1.490   .     S
C189   C190    1.407   1_556 A
C190   C191    1.398   .     A
C190   H204    1.082   .     S
C190   C189    1.407   1_554 A
C191   H205    1.083   .     S
C191   C186    1.407   1_554 A
C192   C197    1.407   .     A
C192   C193    1.407   1_556 A
C193   C194    1.399   .     A
C193   H206    1.082   .     S
C193   C192    1.407   1_554 A
C194   H207    1.083   .     S
C194   C195    1.404   1_554 A
C195   C196    1.403   .     A
C195   C194    1.404   1_556 A
C196   C197    1.396   .     A
C196   H208    1.083   .     S
C197   H209    1.082   .     S
C210   C215    1.405   .     A
C210   C216    1.482   .     S
C210   C211    1.403   1_556 A
C211   C212    1.393   .     A
C211   H228    1.083   .     S
C211   C210    1.403   1_554 A
C212   H229    1.083   .     S
C212   C213    1.406   1_554 A
C213   C214    1.408   .     A
C213   C212    1.406   1_556 A
C214   C215    1.402   .     A
C214   H230    1.083   .     S
C215   H231    1.082   .     S
C216   C217    1.405   .     A
C216   C221    1.404   1_556 A
C217   C218    1.402   .     A
C217   H232    1.083   .     S
C218   C219    1.407   .     A
C218   H233    1.082   .     S
C219   C222    1.486   .     S
C219   C220    1.405   1_556 A
C220   C221    1.394   .     A
C220   H234    1.083   .     S
C220   C219    1.405   1_554 A
C221   H235    1.083   .     S
C221   C216    1.404   1_554 A
C222   C227    1.406   .     A
C222   C223    1.405   1_556 A
C223   C224    1.393   .     A
C223   H236    1.082   .     S
C223   C222    1.405   1_554 A
C224   H237    1.083   .     S
C224   C225    1.405   1_554 A
C225   C226    1.408   .     A
C225   C224    1.405   1_556 A
C226   C227    1.402   .     A
C226   H238    1.083   .     S
C227   H239    1.082   .     S
C240   C241    1.407   .     A
C240   C246    1.488   .     S
C240   C245    1.407   1_556 A
C241   C242    1.398   .     A
C241   H258    1.082   .     S
C242   H259    1.083   .     S
C242   C243    1.403   1_556 A
C243   C244    1.403   .     A
C243   C242    1.403   1_554 A
C244   C245    1.396   .     A
C244   H260    1.083   .     S
C245   H261    1.082   .     S
C245   C240    1.407   1_554 A
C246   C251    1.407   .     A
C246   C247    1.406   1_556 A
C247   C248    1.396   .     A
C247   H262    1.082   .     S
C247   C246    1.406   1_554 A
C248   H263    1.082   .     S
C248   C249    1.406   1_554 A
C249   C250    1.406   .     A
C249   C252    1.488   .     S
C249   C248    1.406   1_556 A
C250   C251    1.397   .     A
C250   H264    1.083   .     S
C251   H265    1.082   .     S
C252   C253    1.407   .     A
C252   C257    1.407   1_556 A
C253   C254    1.397   .     A
C253   H266    1.082   .     S
C254   C255    1.403   .     A
C254   H267    1.083   .     S
C255   C256    1.404   1_556 A
C256   C257    1.398   .     A
C256   H268    1.083   .     S
C256   C255    1.404   1_554 A
C257   H269    1.083   .     S
C257   C252    1.407   1_554 A
C270   C271    1.405   .     A
C270   C276    1.480   .     S
C270   C275    1.402   1_556 A
C271   C272    1.403   .     A
C271   H288    1.083   .     S
C272   C273    1.407   .     A
C272   H289    1.083   .     S
C273   C274    1.407   1_556 A
C274   C275    1.392   .     A
C274   H290    1.083   .     S
C274   C273    1.407   1_554 A
C275   H291    1.083   .     S
C275   C270    1.402   1_554 A
C276   C281    1.404   .     A
C276   C277    1.404   1_556 A
C277   C278    1.393   .     A
C277   H292    1.083   .     S
C277   C276    1.404   1_554 A
C278   H293    1.083   .     S
C278   C279    1.404   1_554 A
C279   C280    1.407   .     A
C279   C282    1.484   .     S
C279   C278    1.404   1_556 A
C280   C281    1.402   .     A
C280   H294    1.083   .     S
C281   H295    1.083   .     S
C282   C283    1.405   .     A
C282   C287    1.405   1_556 A
C283   C284    1.399   .     A
C283   H296    1.083   .     S
C284   C285    1.405   .     A
C284   H297    1.083   .     S
C285   C286    1.404   1_556 A
C286   C287    1.397   .     A
C286   H298    1.083   .     S
C286   C285    1.404   1_554 A
C287   H299    1.083   .     S
C287   C282    1.405   1_554 A
C300   C301    1.408   .     A
C300   C306    1.492   .     S
C300   C305    1.409   1_554 A
C301   C302    1.397   .     A
C301   H318    1.082   .     S
C302   C303    1.403   .     A
C302   H319    1.084   .     S
C303   C304    1.403   1_554 A
C304   C305    1.401   .     A
C304   H320    1.083   .     S
C304   C303    1.403   1_556 A
C305   H321    1.082   .     S
C305   C300    1.409   1_556 A
C306   C311    1.410   .     A
C306   C307    1.409   1_554 A
C307   C308    1.397   .     A
C307   H322    1.082   .     S
C307   C306    1.409   1_556 A
C308   H323    1.083   .     S
C308   C309    1.402   1_556 A
C309   C310    1.402   .     A
C309   C312    1.476   .     S
C309   C308    1.402   1_554 A
C310   C311    1.398   .     A
C310   H324    1.084   .     S
C311   H325    1.083   .     S
C312   C313    1.403   .     A
C312   C317    1.403   1_554 A
C313   C314    1.396   .     A
C313   H326    1.083   .     S
C314   C315    1.405   .     A
C314   H327    1.084   .     S
C315   C316    1.405   1_554 A
C316   C317    1.398   .     A
C316   H328    1.084   .     S
C316   C315    1.405   1_556 A
C317   H329    1.083   .     S
C317   C312    1.403   1_556 A
