data_kag+N394+E70
_audit_creation_date              2025-01-21
_audit_creation_method            'Materials Studio'
_symmetry_space_group_name_H-M    'P1'
_symmetry_Int_Tables_number       1
_symmetry_cell_setting            triclinic
loop_
_symmetry_equiv_pos_as_xyz
  x,y,z
_cell_length_a                    20.2466
_cell_length_b                    23.5936
_cell_length_c                    9.2283
_cell_angle_alpha                 95.9200
_cell_angle_beta                  104.4310
_cell_angle_gamma                 112.5777
loop_
_atom_site_label
_atom_site_type_symbol
_atom_site_fract_x
_atom_site_fract_y
_atom_site_fract_z
_atom_site_U_iso_or_equiv
_atom_site_adp_type
_atom_site_occupancy
Pr0    Pr    0.48968   0.56522  -0.02383   0.00000  Uiso   1.00
Pr1    Pr    0.50327   0.43996   1.03219   0.00000  Uiso   1.00
O2     O     0.38680   0.41911   1.06290   0.00000  Uiso   1.00
O3     O     0.37273   0.50577  -0.00541   0.00000  Uiso   1.00
O4     O     0.44035   0.61588   0.81977   0.00000  Uiso   1.00
O5     O     0.50181   0.66442   0.05571   0.00000  Uiso   1.00
O6     O     0.55266   0.53702   0.16733   0.00000  Uiso   1.00
O7     O     0.47624   0.56588   0.22698   0.00000  Uiso   1.00
C8     C     0.52201   0.47080   0.76425   0.00000  Uiso   1.00
C9     C     0.34859   0.45248   0.03553   0.00000  Uiso   1.00
C10    C     0.46301   0.66501   0.92388   0.00000  Uiso   1.00
C11    C     0.52965   0.34337   0.11741   0.00000  Uiso   1.00
C12    C     0.65459   0.56458   1.02065   0.00000  Uiso   1.00
C13    C     0.52125   0.54544   0.27474   0.00000  Uiso   1.00
O14    O     0.61601   0.59804  -0.00306   0.00000  Uiso   1.00
O15    O     0.62635   0.50586   1.03489   0.00000  Uiso   1.00
O16    O     0.55146   0.39573   0.20949   0.00000  Uiso   1.00
O17    O     0.49037   0.33859   0.98053   0.00000  Uiso   1.00
O18    O     0.46359   0.47217   0.81722   0.00000  Uiso   1.00
O19    O     0.56118   0.45153   0.84932   0.00000  Uiso   1.00
Pr20   Pr    0.94544   0.45068   1.01970   0.00000  Uiso   1.00
Pr21   Pr    0.07176   0.58431   0.08033   0.00000  Uiso   1.00
O22    O     0.96867   0.60597   0.07098   0.00000  Uiso   1.00
O23    O     0.87175   0.50504   0.98567   0.00000  Uiso   1.00
O24    O     0.86680   0.35906   0.06424   0.00000  Uiso   1.00
O25    O     0.86783   0.36290   0.83327   0.00000  Uiso   1.00
O26    O    -0.01335   0.51466   0.86703   0.00000  Uiso   1.00
O27    O     0.94571   0.41462   0.77921   0.00000  Uiso   1.00
C28    C     0.07132   0.54403   0.34817   0.00000  Uiso   1.00
C29    C     0.89743   0.56630   1.02505   0.00000  Uiso   1.00
C30    C     0.84106   0.33004  -0.07651   0.00000  Uiso   1.00
C31    C     0.13218   0.67163   0.91558   0.00000  Uiso   1.00
C32    C     0.11567   0.46482   0.06818   0.00000  Uiso   1.00
C33    C    -0.01470   0.46653   0.76602   0.00000  Uiso   1.00
O34    O     0.04901   0.42891   1.06917   0.00000  Uiso   1.00
O35    O     0.13692   0.52339   0.05984   0.00000  Uiso   1.00
O36    O     0.07706   0.61943   0.85435   0.00000  Uiso   1.00
O37    O     0.15951   0.67722   0.05633   0.00000  Uiso   1.00
O38    O     1.00808   0.52840   0.22804   0.00000  Uiso   1.00
O39    O     0.12447   0.58738   0.33605   0.00000  Uiso   1.00
Pr40   Pr    0.60122   0.02222   0.06878   0.00000  Uiso   1.00
Pr41   Pr    0.41604   0.99365   1.03055   0.00000  Uiso   1.00
O42    O     0.46429   0.09942   0.04508   0.00000  Uiso   1.00
O43    O     0.58852   0.11638   0.13707   0.00000  Uiso   1.00
O44    O     0.64667   0.05951   0.88000   0.00000  Uiso   1.00
O45    O     0.66213   0.12703   0.07508   0.00000  Uiso   1.00
O46    O     0.52713   1.03208   0.22116   0.00000  Uiso   1.00
O47    O     0.58613  -0.02044   0.28388   0.00000  Uiso   1.00
C48    C     0.43787   0.98039   0.74546   0.00000  Uiso   1.00
C49    C     0.53518   0.13580   0.10797   0.00000  Uiso   1.00
C50    C     0.67315   0.11734   0.94588   0.00000  Uiso   1.00
C51    C     0.29189   0.88382  -0.10228   0.00000  Uiso   1.00
C52    C     0.47565   0.87866   0.98673   0.00000  Uiso   1.00
C53    C     0.53951  -0.00629   0.31157   0.00000  Uiso   1.00
O54    O     0.54345   0.91480   0.99433   0.00000  Uiso   1.00
O55    O     0.42759   0.89794   1.01740   0.00000  Uiso   1.00
O56    O     0.35064   0.88904   0.00145   0.00000  Uiso   1.00
O57    O     0.29731   0.93514   0.85521   0.00000  Uiso   1.00
O58    O     0.48988  -0.00364   0.88556   0.00000  Uiso   1.00
O59    O     0.37881   0.97625   0.76062   0.00000  Uiso   1.00
N60    N     0.50525   0.51186   0.52041   0.00000  Uiso   1.00
H61    H     0.65845   0.54995   0.41346   0.00000  Uiso   1.00
C62    C     0.54733   0.53407   0.42831   0.00000  Uiso   1.00
C63    C     0.61804   0.53540   0.47549   0.00000  Uiso   1.00
C64    C     0.54628   0.49653   0.63728   0.00000  Uiso   1.00
S65    S     0.63540   0.50868   0.63619   0.00000  Uiso   1.00
N66    N     1.02048   0.50939   0.55215   0.00000  Uiso   1.00
H67    H     0.10062   0.43137   0.74966   0.00000  Uiso   1.00
C68    C     0.02810   0.47612   0.65844   0.00000  Uiso   1.00
C69    C     0.08544   0.45756   0.66798   0.00000  Uiso   1.00
C70    C     0.07246   0.51617   0.48092   0.00000  Uiso   1.00
S71    S     0.13316   0.48293   0.54217   0.00000  Uiso   1.00
N72    N     0.49236  -0.00063   0.53369   0.00000  Uiso   1.00
H73    H     0.45324   0.86758   0.29688   0.00000  Uiso   1.00
C74    C     0.49641   0.96582   0.41211   0.00000  Uiso   1.00
C75    C     0.45595   0.90176   0.38865   0.00000  Uiso   1.00
C76    C     0.44736   0.95994   0.60039   0.00000  Uiso   1.00
S77    S     0.40913   0.88129   0.51783   0.00000  Uiso   1.00
N78    N     0.23634   0.46692   0.05183   0.00000  Uiso   1.00
H79    H     0.25554   0.33571   1.08509   0.00000  Uiso   1.00
C80    C     0.27357   0.43032   1.05546   0.00000  Uiso   1.00
C81    C     0.23474   0.37167   1.07956   0.00000  Uiso   1.00
C82    C     0.16942   0.43650   1.07352   0.00000  Uiso   1.00
S83    S     0.14912   0.36101   1.09733   0.00000  Uiso   1.00
N84    N     0.75520   0.22783   0.95730   0.00000  Uiso   1.00
H85    H     0.78944   0.25155  -0.36777   0.00000  Uiso   1.00
C86    C     0.78680   0.26356  -0.13256   0.00000  Uiso   1.00
C87    C     0.76782   0.23092  -0.28052   0.00000  Uiso   1.00
C88    C     0.71217   0.16801  -0.12337   0.00000  Uiso   1.00
S89    S     0.70949   0.15337  -0.31100   0.00000  Uiso   1.00
N90    N     0.77215   0.55747   0.02141   0.00000  Uiso   1.00
H91    H     0.91021   0.69017   1.02370   0.00000  Uiso   1.00
C92    C     0.84208   0.59253   1.02107   0.00000  Uiso   1.00
C93    C     0.85676   0.65477   1.02318   0.00000  Uiso   1.00
C94    C     0.73342   0.59265   1.02383   0.00000  Uiso   1.00
S95    S     0.78109   0.67037   1.02289   0.00000  Uiso   1.00
N96    N     0.21833   0.77747  -0.08334   0.00000  Uiso   1.00
H97    H     0.17248   0.83163  -0.38961   0.00000  Uiso   1.00
C98    C     0.22720   0.82218  -0.16445   0.00000  Uiso   1.00
C99    C     0.17382   0.80230  -0.30715   0.00000  Uiso   1.00
C100   C     0.15868   0.72342   0.83846   0.00000  Uiso   1.00
S101   S     0.11043   0.72502  -0.34130   0.00000  Uiso   1.00
N102   N     0.48169   0.77561  -0.02282   0.00000  Uiso   1.00
H103   H     0.34663   0.80026   0.74754   0.00000  Uiso   1.00
C104   C     0.44682   0.81113   0.92585   0.00000  Uiso   1.00
C105   C     0.38132   0.77884   0.80468   0.00000  Uiso   1.00
C106   C     0.44187   0.71609   0.89300   0.00000  Uiso   1.00
S107   S     0.36167   0.70192   0.74841   0.00000  Uiso   1.00
N108   N     0.52069   0.23462   1.09038   0.00000  Uiso   1.00
H109   H     0.64798   0.35552   0.36816   0.00000  Uiso   1.00
C110   C     0.55322   0.29502   0.16686   0.00000  Uiso   1.00
C111   C     0.61444   0.30912   0.29384   0.00000  Uiso   1.00
C112   C     0.55820   0.20328   0.16004   0.00000  Uiso   1.00
S113   S     0.63440   0.24660   0.31978   0.00000  Uiso   1.00
loop_
_geom_bond_atom_site_label_1
_geom_bond_atom_site_label_2
_geom_bond_distance
_geom_bond_site_symmetry_2
_ccdc_geom_bond_type
Pr0    O3      2.303   .     S
Pr0    O5      2.279   .     S
Pr0    O6      2.225   .     S
Pr0    O7      2.396   .     S
Pr0    O14     2.320   .     S
Pr0    O4      2.250   1_554 S
Pr0    O18     2.304   1_554 S
Pr1    O2      2.314   .     S
Pr1    O15     2.369   .     S
Pr1    O17     2.289   .     S
Pr1    O18     2.268   .     S
Pr1    O19     2.265   .     S
Pr1    O6      2.198   1_556 S
Pr1    O16     2.249   1_556 S
O2     C9      1.301   1_556 A
O3     C9      1.296   .     A
O4     C10     1.273   .     A
O4     Pr0     2.250   1_556 S
O5     C10     1.278   1_554 A
O6     C13     1.340   .     S
O6     Pr1     2.198   1_554 S
O7     C13     1.199   .     D
C8     O18     1.398   .     S
C8     O19     1.222   .     D
C8     C64     1.479   .     S
C9     O2      1.301   1_554 A
C9     C80     1.471   1_554 S
C10    C106    1.457   .     S
C10    O5      1.278   1_556 A
C11    O16     1.273   .     A
C11    C110    1.468   .     S
C11    O17     1.281   1_554 A
C12    O15     1.316   .     A
C12    C94     1.466   .     S
C12    O14     1.306   1_556 A
C13    C62     1.474   .     S
O14    C12     1.306   1_554 A
O16    Pr1     2.249   1_554 S
O17    C11     1.281   1_556 A
O18    Pr0     2.304   1_556 S
Pr20   O23     2.300   .     S
Pr20   O25     2.267   .     S
Pr20   O27     2.296   .     S
Pr20   O24     2.290   1_556 S
Pr20   O26     2.240   1_655 S
Pr20   O34     2.295   1_655 S
Pr20   O38     2.222   1_556 S
Pr21   O35     2.316   .     S
Pr21   O37     2.306   .     S
Pr21   O39     2.316   .     S
Pr21   O22     2.316   1_455 S
Pr21   O26     2.239   1_554 S
Pr21   O36     2.334   1_554 S
Pr21   O38     2.281   1_455 S
O22    Pr21    2.316   1_655 S
O22    C29     1.309   1_554 A
O23    C29     1.308   .     A
O24    C30     1.278   .     A
O24    Pr20    2.290   1_554 S
O25    C30     1.274   1_556 A
O26    C33     1.380   .     S
O26    Pr20    2.240   1_455 S
O26    Pr21    2.239   1_556 S
O27    C33     1.218   1_655 D
C28    O39     1.206   .     D
C28    C70     1.448   .     S
C28    O38     1.360   1_455 S
C29    C92     1.469   .     S
C29    O22     1.309   1_556 A
C30    C86     1.470   .     S
C30    O25     1.274   1_554 A
C31    O36     1.252   .     A
C31    C100    1.467   .     S
C31    O37     1.250   1_556 A
C32    O35     1.297   .     A
C32    O34     1.292   1_554 A
C32    C82     1.474   1_554 S
C33    C68     1.453   .     S
C33    O27     1.218   1_455 D
O34    Pr20    2.295   1_455 S
O34    C32     1.292   1_556 A
O36    Pr21    2.334   1_556 S
O37    C31     1.250   1_554 A
O38    Pr20    2.222   1_554 S
O38    Pr21    2.281   1_655 S
O38    C28     1.360   1_655 S
Pr40   O43     2.373   .     S
Pr40   O45     2.287   .     S
Pr40   O47     2.351   .     S
Pr40   O44     2.269   1_554 S
Pr40   O46     2.353   1_545 S
Pr40   O54     2.286   1_544 S
Pr40   O58     2.268   1_554 S
Pr41   O55     2.352   .     S
Pr41   O57     2.314   .     S
Pr41   O59     2.357   .     S
Pr41   O42     2.279   1_566 S
Pr41   O46     2.260   1_556 S
Pr41   O56     2.257   1_556 S
Pr41   O58     2.230   1_565 S
O42    C49     1.292   .     A
O42    Pr41    2.279   1_544 S
O43    C49     1.307   .     A
O44    C50     1.274   .     A
O44    Pr40    2.269   1_556 S
O45    C50     1.280   1_554 A
O46    Pr40    2.353   1_565 S
O46    Pr41    2.260   1_554 S
O46    C53     1.343   1_565 S
O47    C53     1.188   .     D
C48    O59     1.206   .     D
C48    C76     1.459   .     S
C48    O58     1.356   1_565 S
C49    C112    1.464   .     S
C50    O45     1.280   1_556 A
C50    C88     1.465   1_556 S
C51    O56     1.281   .     A
C51    C98     1.466   .     S
C51    O57     1.284   1_554 A
C52    O54     1.287   .     A
C52    O55     1.298   .     A
C52    C104    1.460   .     S
C53    O46     1.343   1_545 S
C53    C74     1.464   1_545 S
O54    Pr40    2.286   1_566 S
O56    Pr41    2.257   1_554 S
O57    C51     1.284   1_556 A
O58    Pr40    2.268   1_556 S
O58    Pr41    2.230   1_545 S
O58    C48     1.356   1_545 S
N60    C62     1.354   .     A
N60    C64     1.360   .     A
H61    C63     1.083   .     S
C62    C63     1.375   .     A
C63    S65     1.680   .     A
C64    S65     1.718   .     A
N66    C68     1.334   1_655 A
N66    C70     1.343   1_655 A
H67    C69     1.082   .     S
C68    C69     1.377   .     A
C68    N66     1.334   1_455 A
C69    S71     1.702   .     A
C70    S71     1.712   .     A
C70    N66     1.343   1_455 A
N72    C74     1.343   1_545 A
N72    C76     1.349   1_545 A
H73    C75     1.083   .     S
C74    C75     1.377   .     A
C74    N72     1.343   1_565 A
C74    C53     1.464   1_565 S
C75    S77     1.698   .     A
C76    S77     1.713   .     A
C76    N72     1.349   1_565 A
N78    C80     1.345   1_554 A
N78    C82     1.345   1_554 A
H79    C81     1.083   .     S
C80    C81     1.378   .     A
C80    N78     1.345   1_556 A
C80    C9      1.471   1_556 S
C81    S83     1.706   .     A
C82    S83     1.718   .     A
C82    N78     1.345   1_556 A
C82    C32     1.474   1_556 S
N84    C86     1.342   1_556 A
N84    C88     1.349   1_556 A
H85    C87     1.081   .     S
C86    C87     1.378   .     A
C86    N84     1.342   1_554 A
C87    S89     1.700   .     A
C88    S89     1.713   .     A
C88    N84     1.349   1_554 A
C88    C50     1.465   1_554 S
N90    C92     1.339   1_554 A
N90    C94     1.345   1_554 A
H91    C93     1.082   .     S
C92    C93     1.379   .     A
C92    N90     1.339   1_556 A
C93    S95     1.707   .     A
C94    S95     1.715   .     A
C94    N90     1.345   1_556 A
N96    C98     1.338   .     A
N96    C100    1.341   1_554 A
H97    C99     1.082   .     S
C98    C99     1.377   .     A
C99    S101    1.719   .     A
C100   N96     1.341   1_556 A
C100   S101    1.715   1_556 A
S101   C100    1.715   1_554 A
N102   C104    1.340   1_554 A
N102   C106    1.349   1_554 A
H103   C105    1.081   .     S
C104   C105    1.378   .     A
C104   N102    1.340   1_556 A
C105   S107    1.694   .     A
C106   S107    1.715   .     A
C106   N102    1.349   1_556 A
N108   C110    1.343   1_556 A
N108   C112    1.350   1_556 A
H109   C111    1.083   .     S
C110   C111    1.378   .     A
C110   N108    1.343   1_554 A
C111   S113    1.697   .     A
C112   S113    1.715   .     A
C112   N108    1.350   1_554 A
