data_kag+N155+E191
_audit_creation_date              2025-01-21
_audit_creation_method            'Materials Studio'
_symmetry_space_group_name_H-M    'P1'
_symmetry_Int_Tables_number       1
_symmetry_cell_setting            triclinic
loop_
_symmetry_equiv_pos_as_xyz
  x,y,z
_cell_length_a                    37.2411
_cell_length_b                    38.8417
_cell_length_c                    17.1284
_cell_angle_alpha                 90.0639
_cell_angle_beta                  89.8430
_cell_angle_gamma                 124.4634
loop_
_atom_site_label
_atom_site_type_symbol
_atom_site_fract_x
_atom_site_fract_y
_atom_site_fract_z
_atom_site_U_iso_or_equiv
_atom_site_adp_type
_atom_site_occupancy
C0     C     0.45522   0.38217   0.00073   0.00000  Uiso   1.00
Ho1    Ho    0.48581   0.46110  -0.00111   0.00000  Uiso   1.00
C2     C     0.55232   0.62720   0.99655   0.00000  Uiso   1.00
Ho3    Ho    0.52200   0.54832   0.99829   0.00000  Uiso   1.00
O4     O     0.46283   0.40353   0.06327   0.00000  Uiso   1.00
O5     O     0.46290   0.40300   0.93780   0.00000  Uiso   1.00
O6     O     0.47634   0.43879   0.11919   0.00000  Uiso   1.00
O7     O     0.50369   0.50469   0.09302   0.00000  Uiso   1.00
C8     C     0.49048   0.47316   0.14835   0.00000  Uiso   1.00
C9     C     0.51719   0.53619   0.84878   0.00000  Uiso   1.00
O10    O     0.55493   0.48379   0.00035   0.00000  Uiso   1.00
O11    O     0.58445   0.55411   0.99754   0.00000  Uiso   1.00
O12    O     0.54478   0.60588   0.93398   0.00000  Uiso   1.00
O13    O     0.54486   0.60640   0.05943   0.00000  Uiso   1.00
O14    O     0.53133   0.57057   0.87790   0.00000  Uiso   1.00
O15    O     0.50406   0.50470   0.90416   0.00000  Uiso   1.00
O16    O     0.45283   0.52559   0.99736   0.00000  Uiso   1.00
O17    O     0.42342   0.45531  -0.00043   0.00000  Uiso   1.00
C18    C     0.41976   0.48670   0.99850   0.00000  Uiso   1.00
C19    C     0.58804   0.52266  -0.00068   0.00000  Uiso   1.00
C20    C     0.08127   0.46207   0.00102   0.00000  Uiso   1.00
Ho21   Ho    0.02880   0.48599   0.00067   0.00000  Uiso   1.00
C22    C     0.92254   0.54045   0.99980   0.00000  Uiso   1.00
Ho23   Ho    0.97447   0.51597   1.00100   0.00000  Uiso   1.00
O24    O     0.06647   0.46777   0.06400   0.00000  Uiso   1.00
O25    O     0.06639   0.46754   0.93850   0.00000  Uiso   1.00
O26    O     0.04305   0.47854   0.12084   0.00000  Uiso   1.00
O27    O     1.00176   0.50099   0.09534   0.00000  Uiso   1.00
C28    C     0.02151   0.49022   0.15038   0.00000  Uiso   1.00
C29    C    -0.01830   0.51157   0.85129   0.00000  Uiso   1.00
O30    O     0.08053   0.55325   0.00127   0.00000  Uiso   1.00
O31    O     0.03703   0.57769   0.99992   0.00000  Uiso   1.00
O32    O     0.93722   0.53441   0.93709   0.00000  Uiso   1.00
O33    O     0.93699   0.53471   0.06262   0.00000  Uiso   1.00
O34    O     0.96031   0.52343   0.88071   0.00000  Uiso   1.00
O35    O     0.00143   0.50085   0.90646   0.00000  Uiso   1.00
O36    O     0.92273   0.44886   1.00027   0.00000  Uiso   1.00
O37    O     0.96608   0.42422   0.00204   0.00000  Uiso   1.00
C38    C     0.92811   0.41856   1.00124   0.00000  Uiso   1.00
C39    C     0.07502   0.58348   0.00053   0.00000  Uiso   1.00
C40    C     0.55012   0.93439   0.99829   0.00000  Uiso   1.00
Ho41   Ho    0.51862   0.97931   1.00074   0.00000  Uiso   1.00
C42    C     0.44967   0.07096   0.00380   0.00000  Uiso   1.00
Ho43   Ho    0.48090   0.02583   0.00196   0.00000  Uiso   1.00
O44    O     0.54278   0.94778   0.93593   0.00000  Uiso   1.00
O45    O     0.54193   0.94638   0.06139   0.00000  Uiso   1.00
O46    O     0.52930   0.96852   0.88018   0.00000  Uiso   1.00
O47    O     0.50054   0.00342   0.90701   0.00000  Uiso   1.00
C48    C     0.51460  -0.01290   0.85138   0.00000  Uiso   1.00
C49    C     0.48489   0.01824   0.15132   0.00000  Uiso   1.00
O50    O     0.44996   0.92632   0.99713   0.00000  Uiso   1.00
O51    O     0.41902   0.96333   0.00033   0.00000  Uiso   1.00
O52    O     0.45684   0.05757   0.06637   0.00000  Uiso   1.00
O53    O     0.45773   0.05872   0.94087   0.00000  Uiso   1.00
O54    O     0.47023   0.03681   0.12228   0.00000  Uiso   1.00
O55    O     0.49897   1.00179   0.09589   0.00000  Uiso   1.00
O56    O     0.54971   0.07887   0.00530   0.00000  Uiso   1.00
O57    O     0.58041   0.04164   1.00234   0.00000  Uiso   1.00
C58    C     0.58326   0.07659   0.00473   0.00000  Uiso   1.00
C59    C     0.41633   0.92843   0.99754   0.00000  Uiso   1.00
Ni60   Ni    0.50352   0.50447   0.49859   0.00000  Uiso   1.00
C61    C     0.49323   0.48041   0.23321   0.00000  Uiso   1.00
C62    C     0.51038   0.52062   0.26225   0.00000  Uiso   1.00
C63    C     0.51299   0.52711   0.34282   0.00000  Uiso   1.00
C64    C     0.48204   0.45534   0.36622   0.00000  Uiso   1.00
C65    C     0.47886   0.44745   0.28605   0.00000  Uiso   1.00
H66    H     0.54184   0.59317   0.73116   0.00000  Uiso   1.00
H67    H     0.48589   0.46252   0.77422   0.00000  Uiso   1.00
H68    H     0.48100   0.45101   0.63170   0.00000  Uiso   1.00
H69    H     0.53576   0.57879   0.58946   0.00000  Uiso   1.00
N70    N     0.50806   0.51431   0.60438   0.00000  Uiso   1.00
N71    N     0.49901   0.49468   0.39277   0.00000  Uiso   1.00
H72    H     0.52176   0.54678   0.22315   0.00000  Uiso   1.00
H73    H     0.52629   0.55805   0.36574   0.00000  Uiso   1.00
H74    H     0.47109   0.43013   0.40740   0.00000  Uiso   1.00
H75    H     0.46540   0.41599   0.26564   0.00000  Uiso   1.00
C76    C     0.51424   0.52884   0.76391   0.00000  Uiso   1.00
C77    C     0.49709   0.48860   0.73502   0.00000  Uiso   1.00
C78    C     0.49427   0.48197   0.65447   0.00000  Uiso   1.00
C79    C     0.52498   0.55367   0.63077   0.00000  Uiso   1.00
C80    C     0.52838   0.56170   0.71091   0.00000  Uiso   1.00
Ni81   Ni    0.00116   0.50016   0.50096   0.00000  Uiso   1.00
C82    C    -0.01395   0.50880   0.76638   0.00000  Uiso   1.00
C83    C     0.01094   0.49484   0.73733   0.00000  Uiso   1.00
C84    C     0.01491   0.49236   0.65678   0.00000  Uiso   1.00
C85    C     0.97032   0.51690   0.63330   0.00000  Uiso   1.00
C86    C     0.96548   0.51987   0.71349   0.00000  Uiso   1.00
H87    H     0.05721   0.47085   0.26749   0.00000  Uiso   1.00
H88    H     0.97559   0.51527   0.22581   0.00000  Uiso   1.00
H89    H     0.96805   0.51855   0.36843   0.00000  Uiso   1.00
H90    H     0.04787   0.47513   0.40940   0.00000  Uiso   1.00
N91    N     1.00754   0.49700   0.39511   0.00000  Uiso   1.00
N92    N    -0.00522   0.50338   0.60677   0.00000  Uiso   1.00
H93    H     0.02722   0.48599   0.77642   0.00000  Uiso   1.00
H94    H     0.03413   0.48171   0.63391   0.00000  Uiso   1.00
H95    H     0.95467   0.52545   0.59208   0.00000  Uiso   1.00
H96    H     0.94596   0.53072   0.73387   0.00000  Uiso   1.00
C97    C     1.01697   0.49266   0.23538   0.00000  Uiso   1.00
C98    C     0.99179   0.50625   0.26470   0.00000  Uiso   1.00
C99    C     0.98745   0.50815   0.34533   0.00000  Uiso   1.00
C100   C     0.03223   0.48378   0.36835   0.00000  Uiso   1.00
C101   C     0.03745   0.48140   0.28808   0.00000  Uiso   1.00
Ni102  Ni    0.49918   0.00247   0.50150   0.00000  Uiso   1.00
C103   C     0.48775   0.01410   0.23616   0.00000  Uiso   1.00
C104   C     0.47334   0.03146   0.28907   0.00000  Uiso   1.00
C105   C     0.47680   0.02732   0.36921   0.00000  Uiso   1.00
C106   C     0.50821   0.98953   0.34571   0.00000  Uiso   1.00
C107   C     0.50533   0.99290   0.26514   0.00000  Uiso   1.00
H108   H     0.48241   0.02616   0.77737   0.00000  Uiso   1.00
H109   H     0.53970   0.95743   0.73361   0.00000  Uiso   1.00
H110   H     0.53264   0.96438   0.59204   0.00000  Uiso   1.00
H111   H     0.47656   0.03156   0.63487   0.00000  Uiso   1.00
N112   N     0.50432   0.99824   0.60726   0.00000  Uiso   1.00
N113   N     0.49412   0.00673   0.39571   0.00000  Uiso   1.00
H114   H     0.45969   0.04814   0.26873   0.00000  Uiso   1.00
H115   H     0.46587   0.04068   0.41045   0.00000  Uiso   1.00
H116   H     0.52183   0.97332   0.36858   0.00000  Uiso   1.00
H117   H     0.51689   0.97923   0.22600   0.00000  Uiso   1.00
C118   C     0.51158   0.99132   0.76664   0.00000  Uiso   1.00
C119   C     0.52585   0.97396   0.71350   0.00000  Uiso   1.00
C120   C     0.52188   0.97781   0.63346   0.00000  Uiso   1.00
C121   C     0.49042   0.01551   0.65749   0.00000  Uiso   1.00
C122   C     0.49379   0.01241   0.73801   0.00000  Uiso   1.00
Ni123  Ni    0.23939   0.45488  -0.00088   0.00000  Uiso   1.00
C124   C     0.37553   0.47805  -0.00150   0.00000  Uiso   1.00
C125   C     0.33798   0.43704   0.00389   0.00000  Uiso   1.00
C126   C     0.29679   0.43018   0.00376   0.00000  Uiso   1.00
C127   C     0.32881   0.50287   0.99310   0.00000  Uiso   1.00
C128   C     0.37043   0.51115   0.99319   0.00000  Uiso   1.00
H129   H     0.12124   0.45460   0.12681   0.00000  Uiso   1.00
H130   H     0.11836   0.45052   0.87456   0.00000  Uiso   1.00
H131   H     0.18252   0.44704   0.87660   0.00000  Uiso   1.00
H132   H     0.18525   0.45094   0.12325   0.00000  Uiso   1.00
N133   N     0.18646   0.44843  -0.00008   0.00000  Uiso   1.00
N134   N     0.29312   0.46301  -0.00162   0.00000  Uiso   1.00
H135   H     0.34034   0.41059   0.00844   0.00000  Uiso   1.00
H136   H     0.26778   0.39875   0.00808   0.00000  Uiso   1.00
H137   H     0.32484   0.52833   0.98897   0.00000  Uiso   1.00
H138   H     0.39830   0.54325   0.98906   0.00000  Uiso   1.00
C139   C     0.11472   0.45292   0.00079   0.00000  Uiso   1.00
C140   C     0.13167   0.44957   0.93004   0.00000  Uiso   1.00
C141   C     0.16793   0.44749   0.93099   0.00000  Uiso   1.00
C142   C     0.16945   0.44967   0.06937   0.00000  Uiso   1.00
C143   C     0.13324   0.45180   0.07114   0.00000  Uiso   1.00
Ni144  Ni    0.76105   0.24292   0.00618   0.00000  Uiso   1.00
C145   C     0.88828   0.37534   0.00153   0.00000  Uiso   1.00
C146   C     0.84720   0.36862  -0.00610   0.00000  Uiso   1.00
C147   C     0.80974   0.32813  -0.00498   0.00000  Uiso   1.00
C148   C     0.85173   0.30021   1.01096   0.00000  Uiso   1.00
C149   C     0.89032   0.34045   1.01001   0.00000  Uiso   1.00
H150   H     0.60290   0.15483   0.03109   0.00000  Uiso   1.00
H151   H     0.66334   0.08912   0.98353   0.00000  Uiso   1.00
H152   H     0.73507   0.15702   0.98497   0.00000  Uiso   1.00
H153   H     0.67553   0.22065   0.03144   0.00000  Uiso   1.00
N154   N     0.70841   0.19177   1.00858   0.00000  Uiso   1.00
N155   N     0.81257   0.29502   0.00362   0.00000  Uiso   1.00
H156   H     0.84385   0.39438  -0.01283   0.00000  Uiso   1.00
H157   H     0.77809   0.32292  -0.01071   0.00000  Uiso   1.00
H158   H     0.85299   0.27322   1.01783   0.00000  Uiso   1.00
H159   H     0.92125   0.34417   1.01640   0.00000  Uiso   1.00
C160   C     0.62704   0.11635   1.00704   0.00000  Uiso   1.00
C161   C     0.66504   0.11745   0.99474   0.00000  Uiso   1.00
C162   C     0.70573   0.15583   0.99552   0.00000  Uiso   1.00
C163   C     0.67228   0.19150   0.02149   0.00000  Uiso   1.00
C164   C     0.63116   0.15408   0.02095   0.00000  Uiso   1.00
Ni165  Ni    0.76736   0.55219   1.00017   0.00000  Uiso   1.00
C166   C     0.88985   0.55053   0.99934   0.00000  Uiso   1.00
C167   C     0.87122   0.55121   0.92875   0.00000  Uiso   1.00
C168   C     0.83578   0.55452   0.93010   0.00000  Uiso   1.00
C169   C     0.83841   0.55881   0.06829   0.00000  Uiso   1.00
C170   C     0.87385   0.55550   0.06967   0.00000  Uiso   1.00
H171   H     0.66745   0.59731   0.97390   0.00000  Uiso   1.00
H172   H     0.60916   0.46704   0.02784   0.00000  Uiso   1.00
H173   H     0.68224   0.48103   0.02763   0.00000  Uiso   1.00
H174   H     0.73975   0.60834   0.97501   0.00000  Uiso   1.00
N175   N     0.71414   0.54516   0.00131   0.00000  Uiso   1.00
N176   N     0.81966   0.55740   0.99926   0.00000  Uiso   1.00
H177   H     0.88255   0.54721   0.87339   0.00000  Uiso   1.00
H178   H     0.81981   0.55282   0.87616   0.00000  Uiso   1.00
H179   H     0.82454   0.56057   0.12248   0.00000  Uiso   1.00
H180   H     0.88734   0.55499   0.12527   0.00000  Uiso   1.00
C181   C     0.63216   0.53109   0.00054   0.00000  Uiso   1.00
C182   C     0.63705   0.49842   0.01589   0.00000  Uiso   1.00
C183   C     0.67845   0.50620   0.01606   0.00000  Uiso   1.00
C184   C     0.71073   0.57763   0.98668   0.00000  Uiso   1.00
C185   C     0.66973   0.57126   0.98620   0.00000  Uiso   1.00
Ni186  Ni    0.24036   0.76028   0.99626   0.00000  Uiso   1.00
C187   C     0.37278   0.88841  -0.00543   0.00000  Uiso   1.00
C188   C     0.33444   0.88633   0.00977   0.00000  Uiso   1.00
C189   C     0.29416   0.84747   0.00929   0.00000  Uiso   1.00
C190   C     0.32867   0.81340   0.97733   0.00000  Uiso   1.00
C191   C     0.36935   0.85126   0.97748   0.00000  Uiso   1.00
H192   H     0.15985   0.60836  -0.00329   0.00000  Uiso   1.00
H193   H     0.08062   0.65751   1.00369   0.00000  Uiso   1.00
H194   H     0.14826   0.72877   1.00218   0.00000  Uiso   1.00
H195   H     0.22505   0.68025  -0.00472   0.00000  Uiso   1.00
N196   N     0.18958   0.70761   0.99856   0.00000  Uiso   1.00
N197   N     0.29224   0.81209  -0.00635   0.00000  Uiso   1.00
H198   H     0.33563   0.91422   0.02312   0.00000  Uiso   1.00
H199   H     0.26456   0.84546   0.02218   0.00000  Uiso   1.00
H200   H     0.32602   0.78471   0.96498   0.00000  Uiso   1.00
H201   H     0.39787   0.85131   0.96460   0.00000  Uiso   1.00
C202   C     0.11460   0.62684   1.00019   0.00000  Uiso   1.00
C203   C     0.11185   0.66151   1.00184   0.00000  Uiso   1.00
C204   C     0.15006   0.70195   1.00101   0.00000  Uiso   1.00
C205   C     0.19314   0.67471  -0.00278   0.00000  Uiso   1.00
C206   C     0.15602   0.63397  -0.00197   0.00000  Uiso   1.00
Ni207  Ni    0.58075   0.79698  -0.00440   0.00000  Uiso   1.00
C208   C     0.56427   0.90576  -0.00274   0.00000  Uiso   1.00
C209   C     0.57021   0.89097   0.06742   0.00000  Uiso   1.00
C210   C     0.57787   0.85969   0.06538   0.00000  Uiso   1.00
C211   C     0.57584   0.85873   0.92700   0.00000  Uiso   1.00
C212   C     0.56818   0.89002   0.92631   0.00000  Uiso   1.00
H213   H     0.56870   0.67759   0.12207   0.00000  Uiso   1.00
H214   H     0.56532   0.67572   0.86980   0.00000  Uiso   1.00
H215   H     0.57756   0.74518   0.87218   0.00000  Uiso   1.00
H216   H     0.58105   0.74707   0.11878   0.00000  Uiso   1.00
N217   N     0.58023   0.74933   0.99544   0.00000  Uiso   1.00
N218   N     0.57967   0.84375  -0.00408   0.00000  Uiso   1.00
H219   H     0.56725   0.90224   0.12329   0.00000  Uiso   1.00
H220   H     0.58054   0.84681   0.11929   0.00000  Uiso   1.00
H221   H     0.57690   0.84508   0.87269   0.00000  Uiso   1.00
H222   H     0.56350   0.90047   0.87104   0.00000  Uiso   1.00
C223   C     0.56589   0.67103   0.99598   0.00000  Uiso   1.00
C224   C     0.56960   0.69103   0.92524   0.00000  Uiso   1.00
C225   C     0.57668   0.73040   0.92634   0.00000  Uiso   1.00
C226   C     0.57860   0.73145   0.06471   0.00000  Uiso   1.00
C227   C     0.57148   0.69207   0.06634   0.00000  Uiso   1.00
Ni228  Ni    0.42286   0.21076   1.00359   0.00000  Uiso   1.00
C229   C     0.44111   0.33820   0.00144   0.00000  Uiso   1.00
C230   C     0.43598   0.31779   0.07236   0.00000  Uiso   1.00
C231   C     0.42784   0.27800   0.07167   0.00000  Uiso   1.00
C232   C     0.42786   0.27746   0.93324   0.00000  Uiso   1.00
C233   C     0.43603   0.31725   0.93120   0.00000  Uiso   1.00
H234   H     0.43819   0.10661   0.13042   0.00000  Uiso   1.00
H235   H     0.43207   0.10239   0.87833   0.00000  Uiso   1.00
H236   H     0.42054   0.15901   0.88108   0.00000  Uiso   1.00
H237   H     0.42647   0.16311   0.12752   0.00000  Uiso   1.00
N238   N     0.42258   0.16326   1.00435   0.00000  Uiso   1.00
N239   N     0.42475   0.25910   0.00277   0.00000  Uiso   1.00
H240   H     0.43987   0.33304   0.12772   0.00000  Uiso   1.00
H241   H     0.42573   0.26280   0.12605   0.00000  Uiso   1.00
H242   H     0.42574   0.26183   0.87938   0.00000  Uiso   1.00
H243   H     0.43999   0.33208   0.87536   0.00000  Uiso   1.00
C244   C     0.43611   0.10002   1.00437   0.00000  Uiso   1.00
C245   C     0.42997   0.11445   0.93394   0.00000  Uiso   1.00
C246   C     0.42329   0.14639   0.93527   0.00000  Uiso   1.00
C247   C     0.42659   0.14867   0.07357   0.00000  Uiso   1.00
C248   C     0.43331   0.11675   0.07497   0.00000  Uiso   1.00
loop_
_geom_bond_atom_site_label_1
_geom_bond_atom_site_label_2
_geom_bond_distance
_geom_bond_site_symmetry_2
_ccdc_geom_bond_type
C0     O4      1.284   .     A
C0     C229    1.476   .     S
C0     O5      1.279   1_554 A
Ho1    O4      2.187   .     S
Ho1    O6      2.185   .     S
Ho1    O7      2.153   .     S
Ho1    O10     2.199   .     S
Ho1    O17     2.204   .     S
Ho1    O5      2.176   1_554 S
Ho1    O15     2.159   1_554 S
C2     O12     1.284   .     A
C2     C223    1.476   .     S
C2     O13     1.279   1_556 A
Ho3    O11     2.206   .     S
Ho3    O12     2.188   .     S
Ho3    O14     2.186   .     S
Ho3    O15     2.153   .     S
Ho3    O16     2.200   .     S
Ho3    O7      2.159   1_556 S
Ho3    O13     2.176   1_556 S
O5     C0      1.279   1_556 A
O5     Ho1     2.176   1_556 S
O6     C8      1.230   .     D
O7     C8      1.399   .     S
O7     Ho3     2.159   1_554 S
C8     C61     1.473   .     S
C9     O14     1.230   .     D
C9     O15     1.399   .     S
C9     C76     1.473   .     S
O10    C19     1.301   .     A
O11    C19     1.302   1_556 A
O13    C2      1.279   1_554 A
O13    Ho3     2.176   1_554 S
O15    Ho1     2.159   1_556 S
O16    C18     1.301   .     A
O17    C18     1.302   1_554 A
C18    O17     1.302   1_556 A
C18    C124    1.483   1_556 S
C19    C181    1.483   .     S
C19    O11     1.302   1_554 A
C20    O24     1.285   .     A
C20    C139    1.476   .     S
C20    O25     1.279   1_554 A
Ho21   O24     2.186   .     S
Ho21   O26     2.187   .     S
Ho21   O30     2.200   .     S
Ho21   O25     2.176   1_554 S
Ho21   O27     2.153   1_455 S
Ho21   O35     2.157   1_554 S
Ho21   O37     2.207   1_455 S
C22    O32     1.284   .     A
C22    C166    1.475   .     S
C22    O33     1.280   1_556 A
Ho23   O32     2.184   .     S
Ho23   O34     2.188   .     S
Ho23   O36     2.196   .     S
Ho23   O27     2.159   1_556 S
Ho23   O31     2.203   1_655 S
Ho23   O33     2.175   1_556 S
Ho23   O35     2.152   1_655 S
O25    C20     1.279   1_556 A
O25    Ho21    2.176   1_556 S
O26    C28     1.231   .     D
O27    Ho21    2.153   1_655 S
O27    Ho23    2.159   1_554 S
O27    C28     1.399   1_655 S
C28    O27     1.399   1_455 S
C28    C97     1.474   1_455 S
C29    O35     1.399   .     S
C29    C82     1.474   .     S
C29    O34     1.230   1_455 D
O30    C39     1.301   .     A
O31    Ho23    2.203   1_455 S
O31    C39     1.301   1_556 A
O33    C22     1.280   1_554 A
O33    Ho23    2.175   1_554 S
O34    C29     1.230   1_655 D
O35    Ho21    2.157   1_556 S
O35    Ho23    2.152   1_455 S
O36    C38     1.301   .     A
O37    Ho21    2.207   1_655 S
O37    C38     1.303   1_554 A
C38    O37     1.303   1_556 A
C38    C145    1.483   1_556 S
C39    O31     1.301   1_554 A
C39    C202    1.483   1_554 S
C40    O44     1.285   .     A
C40    O45     1.279   1_556 A
C40    C208    1.475   1_556 S
Ho41   O44     2.187   .     S
Ho41   O46     2.186   .     S
Ho41   O50     2.196   .     S
Ho41   O45     2.175   1_556 S
Ho41   O47     2.152   1_565 S
Ho41   O55     2.160   1_556 S
Ho41   O57     2.203   1_565 S
C42    O52     1.285   .     A
C42    O53     1.279   1_554 A
C42    C244    1.475   1_554 S
Ho43   O52     2.187   .     S
Ho43   O54     2.185   .     S
Ho43   O56     2.200   .     S
Ho43   O47     2.156   1_554 S
Ho43   O51     2.208   1_545 S
Ho43   O53     2.174   1_554 S
Ho43   O55     2.153   1_545 S
O45    C40     1.279   1_554 A
O45    Ho41    2.175   1_554 S
O46    C48     1.230   1_565 D
O47    C48     1.398   .     S
O47    Ho41    2.152   1_545 S
O47    Ho43    2.156   1_556 S
C48    O46     1.230   1_545 D
C48    C118    1.473   1_545 S
C49    O54     1.230   .     D
C49    C103    1.473   .     S
C49    O55     1.400   1_545 S
O50    C59     1.301   .     A
O51    Ho43    2.208   1_565 S
O51    C59     1.302   1_554 A
O53    C42     1.279   1_556 A
O53    Ho43    2.174   1_556 S
O55    Ho41    2.160   1_554 S
O55    Ho43    2.153   1_565 S
O55    C49     1.400   1_565 S
O56    C58     1.301   .     A
O57    Ho41    2.203   1_545 S
O57    C58     1.301   1_556 A
C58    O57     1.301   1_554 A
C58    C160    1.482   1_554 S
C59    O51     1.302   1_556 A
C59    C187    1.482   1_556 S
Ni60   N70     1.840   .     S
Ni60   N71     1.840   .     S
C61    C62     1.402   .     A
C61    C65     1.403   .     A
C62    C63     1.396   .     A
C62    H72     1.083   .     S
C63    N71     1.359   .     A
C63    H73     1.082   .     S
C64    C65     1.397   .     A
C64    N71     1.360   .     A
C64    H74     1.082   .     S
C65    H75     1.083   .     S
H66    C80     1.083   .     S
H67    C77     1.083   .     S
H68    C78     1.082   .     S
H69    C79     1.082   .     S
N70    C78     1.359   .     A
N70    C79     1.360   .     A
C76    C77     1.402   .     A
C76    C80     1.403   .     A
C77    C78     1.397   .     A
C79    C80     1.397   .     A
Ni81   N92     1.841   .     S
Ni81   N91     1.841   1_455 S
C82    C83     1.402   .     A
C82    C86     1.404   1_455 A
C83    C84     1.396   .     A
C83    H93     1.083   .     S
C84    N92     1.359   .     A
C84    H94     1.082   .     S
C85    C86     1.398   .     A
C85    H95     1.082   .     S
C85    N92     1.360   1_655 A
C86    H96     1.083   .     S
C86    C82     1.404   1_655 A
H87    C101    1.083   .     S
H88    C98     1.083   .     S
H89    C99     1.082   .     S
H90    C100    1.082   .     S
N91    C99     1.358   .     A
N91    Ni81    1.841   1_655 S
N91    C100    1.360   1_655 A
N92    C85     1.360   1_455 A
C97    C98     1.403   .     A
C97    C101    1.404   1_655 A
C97    C28     1.474   1_655 S
C98    C99     1.397   .     A
C100   C101    1.398   .     A
C100   N91     1.360   1_455 A
C101   C97     1.404   1_455 A
Ni102  N113    1.840   .     S
Ni102  N112    1.839   1_545 S
C103   C104    1.403   .     A
C103   C107    1.402   1_545 A
C104   C105    1.397   .     A
C104   H114    1.083   .     S
C105   N113    1.359   .     A
C105   H115    1.082   .     S
C106   C107    1.397   .     A
C106   H116    1.082   .     S
C106   N113    1.359   1_565 A
C107   H117    1.083   .     S
C107   C103    1.402   1_565 A
H108   C122    1.083   .     S
H109   C119    1.083   .     S
H110   C120    1.082   .     S
H111   C121    1.082   .     S
N112   C120    1.359   .     A
N112   Ni102   1.839   1_565 S
N112   C121    1.359   1_565 A
N113   C106    1.359   1_545 A
C118   C119    1.403   .     A
C118   C122    1.403   1_565 A
C118   C48     1.473   1_565 S
C119   C120    1.397   .     A
C121   C122    1.397   .     A
C121   N112    1.359   1_545 A
C122   C118    1.403   1_545 A
Ni123  N133    1.841   .     S
Ni123  N134    1.841   .     S
C124   C125    1.407   .     A
C124   C128    1.405   1_554 A
C124   C18     1.483   1_554 S
C125   C126    1.401   .     A
C125   H135    1.083   .     S
C126   N134    1.360   .     A
C126   H136    1.082   .     S
C127   C128    1.393   .     A
C127   H137    1.082   .     S
C127   N134    1.358   1_556 A
C128   H138    1.083   .     S
C128   C124    1.405   1_556 A
H129   C143    1.083   .     S
H130   C140    1.083   .     S
H131   C141    1.082   .     S
H132   C142    1.082   .     S
N133   C142    1.360   .     A
N133   C141    1.359   1_554 A
N134   C127    1.358   1_554 A
C139   C143    1.403   .     A
C139   C140    1.404   1_554 A
C140   C141    1.398   .     A
C140   C139    1.404   1_556 A
C141   N133    1.359   1_556 A
C142   C143    1.397   .     A
Ni144  N155    1.839   .     S
Ni144  N154    1.839   1_554 S
C145   C146    1.405   .     A
C145   C149    1.407   1_554 A
C145   C38     1.483   1_554 S
C146   C147    1.392   .     A
C146   H156    1.082   .     S
C147   N155    1.357   .     A
C147   H157    1.082   .     S
C148   C149    1.402   .     A
C148   H158    1.082   .     S
C148   N155    1.361   1_556 A
C149   H159    1.083   .     S
C149   C145    1.407   1_556 A
H150   C164    1.083   .     S
H151   C161    1.083   .     S
H152   C162    1.082   .     S
H153   C163    1.082   .     S
N154   C162    1.360   .     A
N154   Ni144   1.839   1_556 S
N154   C163    1.357   1_556 A
N155   C148    1.361   1_554 A
C160   C161    1.407   .     A
C160   C164    1.405   1_556 A
C160   C58     1.482   1_556 S
C161   C162    1.401   .     A
C163   C164    1.392   .     A
C163   N154    1.357   1_554 A
C164   C160    1.405   1_554 A
Ni165  N176    1.841   .     S
Ni165  N175    1.841   1_556 S
C166   C167    1.403   .     A
C166   C170    1.403   1_556 A
C167   C168    1.397   .     A
C167   H177    1.083   .     S
C168   N176    1.359   .     A
C168   H178    1.082   .     S
C169   C170    1.397   .     A
C169   H179    1.082   .     S
C169   N176    1.360   1_554 A
C170   H180    1.083   .     S
C170   C166    1.403   1_554 A
H171   C185    1.083   .     S
H172   C182    1.083   .     S
H173   C183    1.083   .     S
H174   C184    1.082   .     S
N175   C183    1.358   .     A
N175   Ni165   1.841   1_554 S
N175   C184    1.361   1_554 A
N176   C169    1.360   1_556 A
C181   C182    1.405   .     A
C181   C185    1.407   1_554 A
C182   C183    1.393   .     A
C184   C185    1.402   .     A
C184   N175    1.361   1_556 A
C185   C181    1.407   1_556 A
Ni186  N196    1.840   .     S
Ni186  N197    1.840   1_556 S
C187   C188    1.407   .     A
C187   C191    1.405   1_554 A
C187   C59     1.482   1_554 S
C188   C189    1.402   .     A
C188   H198    1.083   .     S
C189   N197    1.361   .     A
C189   H199    1.082   .     S
C190   C191    1.392   .     A
C190   H200    1.083   .     S
C190   N197    1.357   1_556 A
C191   H201    1.083   .     S
C191   C187    1.405   1_556 A
H192   C206    1.083   .     S
H193   C203    1.083   .     S
H194   C204    1.082   .     S
H195   C205    1.082   .     S
N196   C204    1.360   .     A
N196   C205    1.357   1_556 A
N197   Ni186   1.840   1_554 S
N197   C190    1.357   1_554 A
C202   C203    1.407   .     A
C202   C206    1.405   1_556 A
C202   C39     1.483   1_556 S
C203   C204    1.401   .     A
C205   C206    1.393   .     A
C205   N196    1.357   1_554 A
C206   C202    1.405   1_554 A
Ni207  N218    1.840   .     S
Ni207  N217    1.840   1_554 S
C208   C209    1.404   .     A
C208   C212    1.404   1_554 A
C208   C40     1.475   1_554 S
C209   C210    1.397   .     A
C209   H219    1.083   .     S
C210   N218    1.359   .     A
C210   H220    1.082   .     S
C211   C212    1.397   .     A
C211   H221    1.082   .     S
C211   N218    1.360   1_556 A
C212   H222    1.083   .     S
C212   C208    1.404   1_556 A
H213   C227    1.083   .     S
H214   C224    1.083   .     S
H215   C225    1.082   .     S
H216   C226    1.082   .     S
N217   C225    1.359   .     A
N217   Ni207   1.840   1_556 S
N217   C226    1.359   1_556 A
N218   C211    1.360   1_554 A
C223   C224    1.404   .     A
C223   C227    1.404   1_556 A
C224   C225    1.397   .     A
C226   C227    1.397   .     A
C226   N217    1.359   1_554 A
C227   C223    1.404   1_554 A
Ni228  N238    1.839   .     S
Ni228  N239    1.839   1_556 S
C229   C230    1.404   .     A
C229   C233    1.404   1_554 A
C230   C231    1.397   .     A
C230   H240    1.083   .     S
C231   N239    1.359   .     A
C231   H241    1.082   .     S
C232   C233    1.397   .     A
C232   H242    1.082   .     S
C232   N239    1.359   1_556 A
C233   H243    1.083   .     S
C233   C229    1.404   1_556 A
H234   C248    1.083   .     S
H235   C245    1.083   .     S
H236   C246    1.082   .     S
H237   C247    1.082   .     S
N238   C246    1.359   .     A
N238   C247    1.359   1_556 A
N239   Ni228   1.839   1_554 S
N239   C232    1.359   1_554 A
C244   C245    1.403   .     A
C244   C248    1.403   1_556 A
C244   C42     1.475   1_556 S
C245   C246    1.397   .     A
C247   C248    1.397   .     A
C247   N238    1.359   1_554 A
C248   C244    1.403   1_554 A
