data_kag+N394+E35
_audit_creation_date              2025-01-21
_audit_creation_method            'Materials Studio'
_symmetry_space_group_name_H-M    'P1'
_symmetry_Int_Tables_number       1
_symmetry_cell_setting            triclinic
loop_
_symmetry_equiv_pos_as_xyz
  x,y,z
_cell_length_a                    31.1165
_cell_length_b                    33.3161
_cell_length_c                    14.3708
_cell_angle_alpha                 94.5864
_cell_angle_beta                  94.5886
_cell_angle_gamma                 113.3737
loop_
_atom_site_label
_atom_site_type_symbol
_atom_site_fract_x
_atom_site_fract_y
_atom_site_fract_z
_atom_site_U_iso_or_equiv
_atom_site_adp_type
_atom_site_occupancy
Pr0    Pr    0.51775   0.54963  -0.02310   0.00000  Uiso   1.00
Pr1    Pr    0.48584   0.45014   1.01849   0.00000  Uiso   1.00
O2     O     0.41785   0.46009   1.04359   0.00000  Uiso   1.00
O3     O     0.44244   0.53314   0.01822   0.00000  Uiso   1.00
O4     O     0.51207   0.60047   0.88698   0.00000  Uiso   1.00
O5     O     0.55620   0.62344   0.01999   0.00000  Uiso   1.00
O6     O     0.53191   0.51635   0.09980   0.00000  Uiso   1.00
O7     O     0.49422   0.55640   0.12455   0.00000  Uiso   1.00
C8     C     0.48923   0.46717   0.83244   0.00000  Uiso   1.00
C9     C     0.41098   0.49606   0.03828   0.00000  Uiso   1.00
C10    C     0.53854   0.63338   0.94638   0.00000  Uiso   1.00
C11    C     0.46557   0.36660   0.05112   0.00000  Uiso   1.00
C12    C     0.59148   0.50308   0.95261   0.00000  Uiso   1.00
C13    C     0.50980   0.53286   0.16160   0.00000  Uiso   1.00
O14    O     0.58430   0.53874  -0.05448   0.00000  Uiso   1.00
O15    O     0.56087   0.46659   0.97662   0.00000  Uiso   1.00
O16    O     0.49120   0.39988   0.11030   0.00000  Uiso   1.00
O17    O     0.44859   0.37599   0.97599   0.00000  Uiso   1.00
O18    O     0.46984   0.48403   0.89868   0.00000  Uiso   1.00
O19    O     0.50415   0.44237   0.86510   0.00000  Uiso   1.00
Pr20   Pr    0.97741   0.44830   1.00969   0.00000  Uiso   1.00
Pr21   Pr    0.02585   0.55057  -0.01747   0.00000  Uiso   1.00
O22    O     0.94677   0.53749  -0.05075   0.00000  Uiso   1.00
O23    O     0.91258   0.46320   0.96413   0.00000  Uiso   1.00
O24    O     0.93241   0.39131   0.08374   0.00000  Uiso   1.00
O25    O     0.95451   0.37657   0.95190   0.00000  Uiso   1.00
O26    O     0.01622   0.48708   0.89852   0.00000  Uiso   1.00
O27    O     0.94406   0.44545   0.85739   0.00000  Uiso   1.00
C28    C     0.02020   0.52768   0.16345   0.00000  Uiso   1.00
C29    C     0.91013   0.50040   0.94877   0.00000  Uiso   1.00
C30    C     0.93010   0.36184   0.01859   0.00000  Uiso   1.00
C31    C     0.07370   0.63715   0.97398   0.00000  Uiso   1.00
C32    C     0.09267   0.49875   0.04702   0.00000  Uiso   1.00
C33    C     0.97892   0.47094   0.82927   0.00000  Uiso   1.00
O34    O     0.05614   0.46188   1.04857   0.00000  Uiso   1.00
O35    O     0.09023   0.53548   0.02804   0.00000  Uiso   1.00
O36    O     0.07086   0.60762   0.90850   0.00000  Uiso   1.00
O37    O     0.04962   0.62245   0.04106   0.00000  Uiso   1.00
O38    O     0.98498   0.51123   0.09072   0.00000  Uiso   1.00
O39    O     0.05538   0.55435   0.13925   0.00000  Uiso   1.00
Pr40   Pr    0.55632   0.03058  -0.01213   0.00000  Uiso   1.00
Pr41   Pr    0.44890   0.96916   1.00991   0.00000  Uiso   1.00
O42    O     0.44858   0.03859   0.04109   0.00000  Uiso   1.00
O43    O     0.52713   0.08246   0.03335   0.00000  Uiso   1.00
O44    O     0.61429   0.07994   0.91792   0.00000  Uiso   1.00
O45    O     0.63323   0.06191   0.05049   0.00000  Uiso   1.00
O46    O     0.51912   0.98952   0.09757   0.00000  Uiso   1.00
O47    O     0.55258   0.05873   0.13821   0.00000  Uiso   1.00
C48    C     0.47431   0.97979   0.83070   0.00000  Uiso   1.00
C49    C     0.48399   0.07684   0.04552   0.00000  Uiso   1.00
C50    C     0.64682   0.08566   0.98428   0.00000  Uiso   1.00
C51    C     0.35847   0.91325   0.01461   0.00000  Uiso   1.00
C52    C     0.52133   0.92353   0.94927   0.00000  Uiso   1.00
C53    C     0.53016   0.02413   0.16605   0.00000  Uiso   1.00
O54    O     0.55605   0.96181   0.94965   0.00000  Uiso   1.00
O55    O     0.47877   0.91769   0.96617   0.00000  Uiso   1.00
O56    O     0.39126   0.91975   0.08088   0.00000  Uiso   1.00
O57    O     0.37175   0.93645   0.94750   0.00000  Uiso   1.00
O58    O     0.48640   0.01246   0.90331   0.00000  Uiso   1.00
O59    O     0.45039   0.94474   0.85420   0.00000  Uiso   1.00
C60    C     0.49730   0.50711   0.44824   0.00000  Uiso   1.00
C61    C     0.47302   0.53022   0.40660   0.00000  Uiso   1.00
C62    C     0.47725   0.53856   0.31334   0.00000  Uiso   1.00
C63    C     0.50501   0.52357   0.26024   0.00000  Uiso   1.00
C64    C     0.52789   0.49982   0.30312   0.00000  Uiso   1.00
N65    N     0.52363   0.49242   0.39462   0.00000  Uiso   1.00
C66    C     0.49474   0.49775   0.54815   0.00000  Uiso   1.00
N67    N     0.51094   0.46790   0.57836   0.00000  Uiso   1.00
C68    C     0.50978   0.45758   0.66833   0.00000  Uiso   1.00
C69    C     0.49128   0.47770   0.73432   0.00000  Uiso   1.00
C70    C     0.47477   0.50869   0.70538   0.00000  Uiso   1.00
C71    C     0.47677   0.51911   0.61318   0.00000  Uiso   1.00
H72    H     0.45852   0.55657   0.28253   0.00000  Uiso   1.00
H73    H     0.54942   0.48748   0.26425   0.00000  Uiso   1.00
H74    H     0.52308   0.43357   0.68806   0.00000  Uiso   1.00
H75    H     0.46046   0.52510   0.75428   0.00000  Uiso   1.00
H76    H     0.45036   0.54144   0.44410   0.00000  Uiso   1.00
H77    H     0.46482   0.54407   0.59473   0.00000  Uiso   1.00
C78    C    -0.00966   0.49408   0.54336   0.00000  Uiso   1.00
C79    C     0.94553   0.47093   0.57113   0.00000  Uiso   1.00
C80    C     0.94148   0.46420   0.66517   0.00000  Uiso   1.00
C81    C    -0.01830   0.48097   0.73164   0.00000  Uiso   1.00
C82    C     0.02539   0.50558   0.70225   0.00000  Uiso   1.00
N83    N     0.02860   0.51121   0.61011   0.00000  Uiso   1.00
C84    C    -0.00247   0.50065   0.44410   0.00000  Uiso   1.00
N85    N     0.03876   0.53239   0.42530   0.00000  Uiso   1.00
C86    C     0.04789   0.54071   0.33620   0.00000  Uiso   1.00
C87    C     0.01417   0.51651   0.25972   0.00000  Uiso   1.00
C88    C     0.97221   0.48282   0.27695   0.00000  Uiso   1.00
C89    C     0.96381   0.47458   0.36866   0.00000  Uiso   1.00
H90    H     0.90704   0.44558   0.68577   0.00000  Uiso   1.00
H91    H     0.05717   0.51934   0.75188   0.00000  Uiso   1.00
H92    H     0.08083   0.56690   0.32546   0.00000  Uiso   1.00
H93    H     0.94560   0.46315   0.21940   0.00000  Uiso   1.00
H94    H     0.91379   0.45812   0.52167   0.00000  Uiso   1.00
H95    H     0.93135   0.44791   0.37928   0.00000  Uiso   1.00
C96    C     0.50627   0.01052   0.45090   0.00000  Uiso   1.00
C97    C     0.52244   0.05266   0.42104   0.00000  Uiso   1.00
C98    C     0.52916   0.05713   0.32712   0.00000  Uiso   1.00
C99    C     0.51905   0.01979   0.26290   0.00000  Uiso   1.00
C100   C     0.50083   0.97822   0.29410   0.00000  Uiso   1.00
N101   N     0.49526   0.97467   0.38625   0.00000  Uiso   1.00
C102   C     0.50050   0.00357   0.55027   0.00000  Uiso   1.00
N103   N     0.47321   0.96251   0.57027   0.00000  Uiso   1.00
C104   C     0.46560   0.95354   0.65962   0.00000  Uiso   1.00
C105   C     0.48580  -0.01275   0.73481   0.00000  Uiso   1.00
C106   C     0.51506   0.02943   0.71646   0.00000  Uiso   1.00
C107   C     0.52292   0.03771   0.62453   0.00000  Uiso   1.00
H108   H     0.54267   0.08975   0.30495   0.00000  Uiso   1.00
H109   H     0.49227   0.94864   0.24606   0.00000  Uiso   1.00
H110   H     0.44293   0.92049   0.67139   0.00000  Uiso   1.00
H111   H     0.53154   0.05617   0.77308   0.00000  Uiso   1.00
H112   H     0.52976   0.08198   0.46872   0.00000  Uiso   1.00
H113   H     0.54644   0.07041   0.61283   0.00000  Uiso   1.00
C114   C     0.27809   0.49880   0.08034   0.00000  Uiso   1.00
C115   C     0.31967   0.53718   1.10401   0.00000  Uiso   1.00
C116   C     0.36294   0.53583   1.09187   0.00000  Uiso   1.00
C117   C     0.36534   0.49616   1.05871   0.00000  Uiso   1.00
C118   C     0.32343   0.45782   0.04177   0.00000  Uiso   1.00
N119   N     0.28127   0.46015   0.05172   0.00000  Uiso   1.00
C120   C     0.23110   0.50019   0.08005   0.00000  Uiso   1.00
N121   N     0.19251   0.46281   0.08731   0.00000  Uiso   1.00
C122   C     0.14810   0.46168   0.08118   0.00000  Uiso   1.00
C123   C     0.14064   0.49964   0.06515   0.00000  Uiso   1.00
C124   C     0.18014   0.53854   1.05893   0.00000  Uiso   1.00
C125   C     0.22503   0.53887   1.06548   0.00000  Uiso   1.00
H126   H     0.39455   0.56602   1.10763   0.00000  Uiso   1.00
H127   H     0.32397   0.42652   0.01678   0.00000  Uiso   1.00
H128   H     0.11870   0.43091   0.08632   0.00000  Uiso   1.00
H129   H     0.17643   0.56862   1.04565   0.00000  Uiso   1.00
H130   H     0.31904   0.56821   1.13063   0.00000  Uiso   1.00
H131   H     0.25419   0.56882   1.05494   0.00000  Uiso   1.00
C132   C     0.82621   0.23094   0.00498   0.00000  Uiso   1.00
C133   C     0.84845   0.24494  -0.07475   0.00000  Uiso   1.00
C134   C     0.88481   0.28685  -0.06861   0.00000  Uiso   1.00
C135   C     0.89844   0.31499   0.01633   0.00000  Uiso   1.00
C136   C     0.87670   0.29906   1.09545   0.00000  Uiso   1.00
N137   N     0.84145   0.25806   1.08782   0.00000  Uiso   1.00
C138   C     0.78331   0.18966   0.99785   0.00000  Uiso   1.00
N139   N     0.75361   0.17510   0.91585   0.00000  Uiso   1.00
C140   C     0.71082   0.14060   0.90854   0.00000  Uiso   1.00
C141   C     0.69559   0.11890   0.98714   0.00000  Uiso   1.00
C142   C     0.72644   0.13217   0.07122   0.00000  Uiso   1.00
C143   C     0.77016   0.16773   0.07702   0.00000  Uiso   1.00
H144   H     0.90047   0.29808  -0.13146   0.00000  Uiso   1.00
H145   H     0.88629   0.31979   1.16224   0.00000  Uiso   1.00
H146   H     0.68816   0.13114   0.84228   0.00000  Uiso   1.00
H147   H     0.71601   0.11624   0.13348   0.00000  Uiso   1.00
H148   H     0.83694   0.22420  -0.14167   0.00000  Uiso   1.00
H149   H     0.79299   0.17862   0.14320   0.00000  Uiso   1.00
C150   C     0.77157   0.49892   0.91367   0.00000  Uiso   1.00
C151   C     0.77737   0.45940  -0.08101   0.00000  Uiso   1.00
C152   C     0.82242   0.45995  -0.07299   0.00000  Uiso   1.00
C153   C     0.86225   0.49977   0.93118   0.00000  Uiso   1.00
C154   C     0.85511   0.53860   0.92499   0.00000  Uiso   1.00
N155   N     0.81062   0.53725   0.91718   0.00000  Uiso   1.00
C156   C     0.72441   0.50021   0.91198   0.00000  Uiso   1.00
N157   N     0.72121   0.53865   0.94236   0.00000  Uiso   1.00
C158   C     0.67903   0.54112   0.95097   0.00000  Uiso   1.00
C159   C     0.63700   0.50303  -0.06877   0.00000  Uiso   1.00
C160   C     0.63931   0.46364  -0.10428   0.00000  Uiso   1.00
C161   C     0.68270   0.46221  -0.11538   0.00000  Uiso   1.00
H162   H     0.82594   0.42913  -0.06760   0.00000  Uiso   1.00
H163   H     0.88478   0.57011   0.92876   0.00000  Uiso   1.00
H164   H     0.67854   0.57225   0.97761   0.00000  Uiso   1.00
H165   H     0.60749   0.43378  -0.12257   0.00000  Uiso   1.00
H166   H     0.74785   0.42837  -0.07920   0.00000  Uiso   1.00
H167   H     0.68315   0.43139  -0.14402   0.00000  Uiso   1.00
C168   C     0.22178   0.80921   0.00136   0.00000  Uiso   1.00
C169   C     0.25082   0.82416   0.08778   0.00000  Uiso   1.00
C170   C     0.29504   0.85909   0.09310   0.00000  Uiso   1.00
C171   C     0.30977   0.87993   0.01331   0.00000  Uiso   1.00
C172   C     0.27844   0.86580  -0.07020   0.00000  Uiso   1.00
N173   N     0.23624   0.83076  -0.07452   0.00000  Uiso   1.00
C174   C     0.17854   0.76782  -0.01020   0.00000  Uiso   1.00
N175   N     0.15693   0.75239   1.06619   0.00000  Uiso   1.00
C176   C     0.12068   0.71206   1.06092   0.00000  Uiso   1.00
C177   C     0.10554   0.68397   0.97576   0.00000  Uiso   1.00
C178   C     0.12604   0.69979   0.89547   0.00000  Uiso   1.00
C179   C     0.16220   0.74185  -0.09799   0.00000  Uiso   1.00
H180   H     0.31815   0.86901   0.15886   0.00000  Uiso   1.00
H181   H     0.28830   0.88119  -0.13319   0.00000  Uiso   1.00
H182   H     0.10575   0.70095   1.12445   0.00000  Uiso   1.00
H183   H     0.11546   0.67901  -0.17144   0.00000  Uiso   1.00
H184   H     0.24053   0.80766   0.14937   0.00000  Uiso   1.00
H185   H     0.17896   0.75287  -0.15989   0.00000  Uiso   1.00
C186   C     0.54491   0.80585   0.91859   0.00000  Uiso   1.00
C187   C     0.58362   0.84639   0.94445   0.00000  Uiso   1.00
C188   C     0.57642   0.88530   0.95004   0.00000  Uiso   1.00
C189   C     0.53076   0.88370   0.93095   0.00000  Uiso   1.00
C190   C     0.49345   0.84263   0.90153   0.00000  Uiso   1.00
N191   N     0.50135   0.80532   0.89631   0.00000  Uiso   1.00
C192   C     0.54921   0.76335   0.91970   0.00000  Uiso   1.00
N193   N     0.51863   0.72811   0.85955   0.00000  Uiso   1.00
C194   C     0.51675   0.68685   0.86336   0.00000  Uiso   1.00
C195   C     0.54562   0.67895   0.93322   0.00000  Uiso   1.00
C196   C     0.57799   0.71485   0.99509   0.00000  Uiso   1.00
C197   C     0.58017   0.75719   0.98813   0.00000  Uiso   1.00
H198   H     0.60621   0.91636  -0.02722   0.00000  Uiso   1.00
H199   H     0.45782   0.84000   0.88494   0.00000  Uiso   1.00
H200   H     0.49108   0.65998   0.81469   0.00000  Uiso   1.00
H201   H     0.60048   0.70996   0.05056   0.00000  Uiso   1.00
H202   H     0.61886   0.84800  -0.03885   0.00000  Uiso   1.00
H203   H     0.60393   0.78424   0.03898   0.00000  Uiso   1.00
C204   C     0.45895   0.23840   0.08365   0.00000  Uiso   1.00
C205   C     0.48132   0.27277   0.15717   0.00000  Uiso   1.00
C206   C     0.48138   0.31413   0.14834   0.00000  Uiso   1.00
C207   C     0.45900   0.32135   0.06672   0.00000  Uiso   1.00
C208   C     0.43440   0.28545  -0.00262   0.00000  Uiso   1.00
N209   N     0.43533   0.24546   0.00702   0.00000  Uiso   1.00
C210   C     0.46387   0.19605   0.08421   0.00000  Uiso   1.00
N211   N     0.42885   0.15836   0.03899   0.00000  Uiso   1.00
C212   C     0.43330   0.11922   0.03053   0.00000  Uiso   1.00
C213   C     0.47562   0.11705   0.06566   0.00000  Uiso   1.00
C214   C     0.51186   0.15532   0.11329   0.00000  Uiso   1.00
C215   C     0.50606   0.19472   0.12325   0.00000  Uiso   1.00
H216   H     0.50037   0.34083   0.20400   0.00000  Uiso   1.00
H217   H     0.41630   0.28962  -0.06622   0.00000  Uiso   1.00
H218   H     0.40471   0.09039  -0.00738   0.00000  Uiso   1.00
H219   H     0.54506   0.15495   0.14124   0.00000  Uiso   1.00
H220   H     0.49954   0.26809   0.21996   0.00000  Uiso   1.00
H221   H     0.53522   0.22417   0.15725   0.00000  Uiso   1.00
loop_
_geom_bond_atom_site_label_1
_geom_bond_atom_site_label_2
_geom_bond_distance
_geom_bond_site_symmetry_2
_ccdc_geom_bond_type
Pr0    O3      2.324   .     S
Pr0    O5      2.273   .     S
Pr0    O6      2.263   .     S
Pr0    O7      2.322   .     S
Pr0    O14     2.311   .     S
Pr0    O4      2.263   1_554 S
Pr0    O18     2.240   1_554 S
Pr1    O2      2.319   .     S
Pr1    O15     2.318   .     S
Pr1    O17     2.279   .     S
Pr1    O18     2.260   .     S
Pr1    O19     2.340   .     S
Pr1    O6      2.258   1_556 S
Pr1    O16     2.261   1_556 S
O2     C9      1.305   1_556 A
O3     C9      1.308   .     A
O4     C10     1.277   .     A
O4     Pr0     2.263   1_556 S
O5     C10     1.280   1_554 A
O6     C13     1.373   .     S
O6     Pr1     2.258   1_554 S
O7     C13     1.209   .     D
C8     O18     1.364   .     S
C8     O19     1.204   .     D
C8     C69     1.480   .     S
C9     O2      1.305   1_554 A
C9     C117    1.474   1_554 S
C10    C195    1.476   .     S
C10    O5      1.280   1_556 A
C11    O16     1.276   .     A
C11    C207    1.477   .     S
C11    O17     1.279   1_554 A
C12    O15     1.306   .     A
C12    O14     1.303   1_556 A
C12    C159    1.474   1_556 S
C13    C63     1.481   .     S
O14    C12     1.303   1_554 A
O16    Pr1     2.261   1_554 S
O17    C11     1.279   1_556 A
O18    Pr0     2.240   1_556 S
Pr20   O23     2.319   .     S
Pr20   O25     2.268   .     S
Pr20   O27     2.324   .     S
Pr20   O24     2.269   1_556 S
Pr20   O26     2.254   1_655 S
Pr20   O34     2.320   1_655 S
Pr20   O38     2.232   1_556 S
Pr21   O35     2.310   .     S
Pr21   O37     2.272   .     S
Pr21   O39     2.338   .     S
Pr21   O22     2.324   1_455 S
Pr21   O26     2.248   1_554 S
Pr21   O36     2.271   1_554 S
Pr21   O38     2.252   1_455 S
O22    Pr21    2.324   1_655 S
O22    C29     1.306   1_554 A
O23    C29     1.306   .     A
O24    C30     1.278   .     A
O24    Pr20    2.269   1_554 S
O25    C30     1.278   1_556 A
O26    Pr20    2.254   1_455 S
O26    Pr21    2.248   1_556 S
O26    C33     1.364   1_455 S
O27    C33     1.206   .     D
C28    O39     1.203   .     D
C28    C87     1.468   .     S
C28    O38     1.357   1_455 S
C29    C153    1.482   .     S
C29    O22     1.306   1_556 A
C30    C135    1.475   .     S
C30    O25     1.278   1_554 A
C31    O36     1.277   .     A
C31    C177    1.476   .     S
C31    O37     1.277   1_556 A
C32    O35     1.305   .     A
C32    C123    1.482   .     S
C32    O34     1.305   1_554 A
C33    O26     1.364   1_655 S
C33    C81     1.469   1_655 S
O34    Pr20    2.320   1_455 S
O34    C32     1.305   1_556 A
O36    Pr21    2.271   1_556 S
O37    C31     1.277   1_554 A
O38    Pr20    2.232   1_554 S
O38    Pr21    2.252   1_655 S
O38    C28     1.357   1_655 S
Pr40   O43     2.324   .     S
Pr40   O45     2.269   .     S
Pr40   O47     2.316   .     S
Pr40   O44     2.274   1_554 S
Pr40   O46     2.253   1_545 S
Pr40   O54     2.309   1_544 S
Pr40   O58     2.234   1_554 S
Pr41   O55     2.320   .     S
Pr41   O57     2.276   .     S
Pr41   O59     2.330   .     S
Pr41   O42     2.325   1_566 S
Pr41   O46     2.251   1_556 S
Pr41   O56     2.277   1_556 S
Pr41   O58     2.257   1_565 S
O42    C49     1.305   .     A
O42    Pr41    2.325   1_544 S
O43    C49     1.308   .     A
O44    C50     1.278   .     A
O44    Pr40    2.274   1_556 S
O45    C50     1.277   1_554 A
O46    Pr40    2.253   1_565 S
O46    Pr41    2.251   1_554 S
O46    C53     1.366   1_565 S
O47    C53     1.207   .     D
C48    O59     1.202   .     D
C48    O58     1.359   1_565 S
C48    C105    1.467   1_565 S
C49    C213    1.474   .     S
C50    C141    1.476   .     S
C50    O45     1.277   1_556 A
C51    O56     1.277   .     A
C51    C171    1.479   .     S
C51    O57     1.276   1_554 A
C52    O54     1.303   .     A
C52    O55     1.306   .     A
C52    C189    1.477   .     S
C53    C99     1.465   .     S
C53    O46     1.366   1_545 S
O54    Pr40    2.309   1_566 S
O56    Pr41    2.277   1_554 S
O57    C51     1.276   1_556 A
O58    Pr40    2.234   1_556 S
O58    Pr41    2.257   1_545 S
O58    C48     1.359   1_545 S
C60    C61     1.409   .     A
C60    N65     1.365   .     A
C60    C66     1.495   .     S
C61    C62     1.396   .     A
C61    H76     1.079   .     S
C62    C63     1.402   .     A
C62    H72     1.084   .     S
C63    C64     1.403   .     A
C64    N65     1.364   .     A
C64    H73     1.083   .     S
C66    N67     1.365   .     A
C66    C71     1.409   .     A
N67    C68     1.364   .     A
C68    C69     1.404   .     A
C68    H74     1.083   .     S
C69    C70     1.399   .     A
C70    C71     1.396   .     A
C70    H75     1.083   .     S
C71    H77     1.079   .     S
C78    N83     1.362   .     A
C78    C84     1.482   .     S
C78    C79     1.408   1_455 A
C79    C80     1.395   .     A
C79    H94     1.080   .     S
C79    C78     1.408   1_655 A
C80    H90     1.083   .     S
C80    C81     1.400   1_655 A
C81    C82     1.401   .     A
C81    C80     1.400   1_455 A
C81    C33     1.469   1_455 S
C82    N83     1.358   .     A
C82    H91     1.083   .     S
C84    N85     1.364   .     A
C84    C89     1.405   1_455 A
N85    C86     1.360   .     A
C86    C87     1.401   .     A
C86    H92     1.083   .     S
C87    C88     1.399   1_455 A
C88    C89     1.392   .     A
C88    H93     1.083   .     S
C88    C87     1.399   1_655 A
C89    H95     1.080   .     S
C89    C84     1.405   1_655 A
C96    C97     1.407   .     A
C96    C102    1.478   .     S
C96    N101    1.362   1_545 A
C97    C98     1.393   .     A
C97    H112    1.080   .     S
C98    C99     1.399   .     A
C98    H108    1.083   .     S
C99    C100    1.399   1_545 A
C100   N101    1.358   .     A
C100   H109    1.082   .     S
C100   C99     1.399   1_565 A
N101   C96     1.362   1_565 A
C102   C107    1.406   .     A
C102   N103    1.362   1_545 A
N103   C104    1.359   .     A
N103   C102    1.362   1_565 A
C104   H110    1.082   .     S
C104   C105    1.400   1_565 A
C105   C106    1.399   .     A
C105   C104    1.400   1_545 A
C105   C48     1.467   1_545 S
C106   C107    1.392   .     A
C106   H111    1.083   .     S
C107   H113    1.080   .     S
C114   N119    1.364   .     A
C114   C120    1.481   .     S
C114   C115    1.404   1_554 A
C115   C116    1.389   .     A
C115   H130    1.081   .     S
C115   C114    1.404   1_556 A
C116   C117    1.401   .     A
C116   H126    1.083   .     S
C117   C118    1.403   1_556 A
C117   C9      1.474   1_556 S
C118   N119    1.362   .     A
C118   H127    1.083   .     S
C118   C117    1.403   1_554 A
C120   N121    1.363   .     A
C120   C125    1.404   1_554 A
N121   C122    1.363   .     A
C122   C123    1.406   .     A
C122   H128    1.082   .     S
C123   C124    1.404   1_554 A
C124   C125    1.388   .     A
C124   H129    1.083   .     S
C124   C123    1.404   1_556 A
C125   H131    1.082   .     S
C125   C120    1.404   1_556 A
C132   C133    1.402   .     A
C132   N137    1.363   1_554 A
C132   C138    1.477   1_554 S
C133   C134    1.396   .     A
C133   H148    1.083   .     S
C134   C135    1.403   .     A
C134   H144    1.083   .     S
C135   C136    1.402   1_554 A
C136   N137    1.360   .     A
C136   H145    1.082   .     S
C136   C135    1.402   1_556 A
N137   C132    1.363   1_556 A
C138   N139    1.363   .     A
C138   C132    1.477   1_556 S
C138   C143    1.402   1_556 A
N139   C140    1.360   .     A
C140   C141    1.403   .     A
C140   H146    1.082   .     S
C141   C142    1.403   1_556 A
C142   C143    1.396   .     A
C142   H147    1.083   .     S
C142   C141    1.403   1_554 A
C143   H149    1.083   .     S
C143   C138    1.402   1_554 A
C150   N155    1.363   .     A
C150   C156    1.484   .     S
C150   C151    1.405   1_556 A
C151   C152    1.390   .     A
C151   H166    1.081   .     S
C151   C150    1.405   1_554 A
C152   H162    1.083   .     S
C152   C153    1.404   1_554 A
C153   C154    1.405   .     A
C153   C152    1.404   1_556 A
C154   N155    1.362   .     A
C154   H163    1.082   .     S
C156   N157    1.364   .     A
C156   C161    1.406   1_556 A
N157   C158    1.362   .     A
C158   H164    1.083   .     S
C158   C159    1.403   1_556 A
C159   C160    1.400   .     A
C159   C158    1.403   1_554 A
C159   C12     1.474   1_554 S
C160   C161    1.391   .     A
C160   H165    1.084   .     S
C161   H167    1.081   .     S
C161   C156    1.406   1_554 A
C168   C169    1.404   .     A
C168   N173    1.362   .     A
C168   C174    1.482   .     S
C169   C170    1.397   .     A
C169   H184    1.082   .     S
C170   C171    1.402   .     A
C170   H180    1.083   .     S
C171   C172    1.404   .     A
C172   N173    1.360   .     A
C172   H181    1.082   .     S
C174   C179    1.405   .     A
C174   N175    1.362   1_554 A
N175   C176    1.360   .     A
N175   C174    1.362   1_556 A
C176   C177    1.404   .     A
C176   H182    1.082   .     S
C177   C178    1.402   .     A
C178   C179    1.396   1_556 A
C178   H183    1.084   1_556 S
C179   H185    1.083   .     S
C179   C178    1.396   1_554 A
H183   C178    1.084   1_554 S
C186   C187    1.404   .     A
C186   N191    1.360   .     A
C186   C192    1.475   .     S
C187   C188    1.398   .     A
C187   H202    1.083   1_556 S
C188   C189    1.404   .     A
C188   H198    1.083   1_556 S
C189   C190    1.402   .     A
C190   N191    1.357   .     A
C190   H199    1.082   .     S
C192   N193    1.361   .     A
C192   C197    1.405   .     A
N193   C194    1.358   .     A
C194   C195    1.403   .     A
C194   H200    1.082   .     S
C195   C196    1.402   .     A
C196   C197    1.397   .     A
C196   H201    1.083   1_556 S
C197   H203    1.083   1_556 S
H198   C188    1.083   1_554 S
H201   C196    1.083   1_554 S
H202   C187    1.083   1_554 S
H203   C197    1.083   1_554 S
C204   C205    1.403   .     A
C204   N209    1.363   .     A
C204   C210    1.479   .     S
C205   C206    1.393   .     A
C205   H220    1.082   .     S
C206   C207    1.402   .     A
C206   H216    1.083   .     S
C207   C208    1.404   .     A
C208   N209    1.362   .     A
C208   H217    1.083   .     S
C210   N211    1.363   .     A
C210   C215    1.404   .     A
N211   C212    1.362   .     A
C212   C213    1.403   .     A
C212   H218    1.082   .     S
C213   C214    1.401   .     A
C214   C215    1.392   .     A
C214   H219    1.083   .     S
C215   H221    1.082   .     S
