data_kag+N505+E70
_audit_creation_date              2025-01-21
_audit_creation_method            'Materials Studio'
_symmetry_space_group_name_H-M    'P1'
_symmetry_Int_Tables_number       1
_symmetry_cell_setting            triclinic
loop_
_symmetry_equiv_pos_as_xyz
  x,y,z
_cell_length_a                    19.7943
_cell_length_b                    17.3202
_cell_length_c                    11.5243
_cell_angle_alpha                 102.9630
_cell_angle_beta                  81.4004
_cell_angle_gamma                 103.2598
loop_
_atom_site_label
_atom_site_type_symbol
_atom_site_fract_x
_atom_site_fract_y
_atom_site_fract_z
_atom_site_U_iso_or_equiv
_atom_site_adp_type
_atom_site_occupancy
Yb0    Yb    0.57672   0.57111   1.01293   0.00000  Uiso   1.00
Yb1    Yb    0.39443   0.50190   0.24714   0.00000  Uiso   1.00
C2     C     0.27020   0.50745   0.29141   0.00000  Uiso   1.00
O3     O     0.52087   0.51936   0.85860   0.00000  Uiso   1.00
O4     O     0.59594   0.63452   0.87417   0.00000  Uiso   1.00
O5     O     0.49608   0.63564   0.09946   0.00000  Uiso   1.00
O6     O     0.39363   0.54987   1.08932   0.00000  Uiso   1.00
O7     O     0.66662   0.52627   0.94409   0.00000  Uiso   1.00
O8     O     0.66963   0.63199   0.09168   0.00000  Uiso   1.00
O9     O     0.48236   0.57507   0.32211   0.00000  Uiso   1.00
O10    O     0.41381   0.48328   0.41423   0.00000  Uiso   1.00
C11    C     0.55494   0.57907   0.80956   0.00000  Uiso   1.00
O12    O     0.55125   0.49399   0.14209   0.00000  Uiso   1.00
O13    O     0.45050   0.40920   1.15064   0.00000  Uiso   1.00
O14    O     0.31788   0.56710   0.33485   0.00000  Uiso   1.00
C15    C     0.43529   0.61363   0.06445   0.00000  Uiso   1.00
O16    O     0.29027   0.44257   1.23215   0.00000  Uiso   1.00
C17    C     0.70282   0.58311   1.01540   0.00000  Uiso   1.00
C18    C     0.46893   0.54026   0.41304   0.00000  Uiso   1.00
C19    C     0.51615   0.42222   0.12276   0.00000  Uiso   1.00
Yb20   Yb    0.06115   0.56767   0.86741   0.00000  Uiso   1.00
Yb21   Yb    0.95967   0.35931   0.08031   0.00000  Uiso   1.00
C22    C     0.89179   0.23165  -0.02276   0.00000  Uiso   1.00
O23    O     0.10317   0.47434   0.75351   0.00000  Uiso   1.00
O24    O     1.04059   0.54278   0.68798   0.00000  Uiso   1.00
O25    O     0.97243   0.47645   0.90925   0.00000  Uiso   1.00
O26    O     0.89044   0.42703   1.03561   0.00000  Uiso   1.00
O27    O     0.13981   0.66712   0.84223   0.00000  Uiso   1.00
O28    O     0.03732   0.68347  -0.06386   0.00000  Uiso   1.00
O29    O     0.96881   0.41012   0.26068   0.00000  Uiso   1.00
O30    O     0.02028   0.30957   0.16727   0.00000  Uiso   1.00
C31    C     1.07401   0.48428   0.66647   0.00000  Uiso   1.00
O32    O     0.09727   0.57214   0.03590   0.00000  Uiso   1.00
O33    O     0.05144   0.44386   0.02543   0.00000  Uiso   1.00
O34    O     0.87543   0.26072   0.08893   0.00000  Uiso   1.00
C35    C     0.91345   0.47856   0.96864   0.00000  Uiso   1.00
O36    O     0.94540   0.27208   0.92286   0.00000  Uiso   1.00
C37    C     0.10067   0.71536   0.90201   0.00000  Uiso   1.00
C38    C     0.00903   0.36172   0.26389   0.00000  Uiso   1.00
C39    C     0.08271   0.51040   0.08398   0.00000  Uiso   1.00
Yb40   Yb    0.40522   0.99842   0.08867   0.00000  Uiso   1.00
Yb41   Yb    0.55724  -0.02714   0.83073   0.00000  Uiso   1.00
C42    C     0.68602   0.03147   0.83901   0.00000  Uiso   1.00
O43    O     0.45680   0.98787   0.22954   0.00000  Uiso   1.00
O44    O     0.37693   0.06224   0.25947   0.00000  Uiso   1.00
O45    O     0.48387   0.10591   0.05200   0.00000  Uiso   1.00
O46    O     0.58022   0.09955  -0.08466   0.00000  Uiso   1.00
O47    O     0.31370   0.91049   0.10299   0.00000  Uiso   1.00
O48    O     0.32266   1.00402   0.99668   0.00000  Uiso   1.00
O49    O     0.47007   0.01303   0.79142   0.00000  Uiso   1.00
O50    O     0.55268   0.99157   0.65313   0.00000  Uiso   1.00
C51    C     0.42035   0.03413   0.30370   0.00000  Uiso   1.00
O52    O     0.44663   0.91928   0.94070   0.00000  Uiso   1.00
O53    O     0.50275   0.84888   0.79789   0.00000  Uiso   1.00
O54    O     0.64072   0.07654   0.85031   0.00000  Uiso   1.00
C55    C     0.54125   0.13858  -0.00326   0.00000  Uiso   1.00
O56    O     0.66120  -0.04481  -0.17814   0.00000  Uiso   1.00
C57    C     0.28551   0.94135   0.03480   0.00000  Uiso   1.00
C58    C     0.49450   1.01419   0.68351   0.00000  Uiso   1.00
C59    C     0.45493   0.84929   0.88467   0.00000  Uiso   1.00
N60    N     0.50033   0.54706   0.61762   0.00000  Uiso   1.00
H61    H     0.60119   0.63752   0.41089   0.00000  Uiso   1.00
C62    C     0.51591   0.56582   0.50815   0.00000  Uiso   1.00
C63    C     0.58015   0.61583   0.49273   0.00000  Uiso   1.00
C64    C     0.55337   0.58473   0.68483   0.00000  Uiso   1.00
S65    S     0.62368   0.64162   0.61572   0.00000  Uiso   1.00
N66    N     0.03580   0.42936   0.46631   0.00000  Uiso   1.00
H67    H     1.14845   0.35848   0.57536   0.00000  Uiso   1.00
C68    C     1.07587   0.42914   0.54982   0.00000  Uiso   1.00
C69    C     1.11377   0.36867   0.51862   0.00000  Uiso   1.00
C70    C     0.04341   0.36979   0.37097   0.00000  Uiso   1.00
S71    S     1.10071   0.31114   0.37943   0.00000  Uiso   1.00
N72    N     0.46761   1.01992   0.48311   0.00000  Uiso   1.00
H73    H     0.34948   0.12899   0.49109   0.00000  Uiso   1.00
C74    C     0.42622   0.05212   0.43302   0.00000  Uiso   1.00
C75    C     0.38618   0.09884   0.51493   0.00000  Uiso   1.00
C76    C     0.45805   1.04155   0.60337   0.00000  Uiso   1.00
S77    S     0.39826   0.10193   0.65915   0.00000  Uiso   1.00
N78    N     0.16243   0.48119   0.19983   0.00000  Uiso   1.00
H79    H     0.19615   0.61946   0.44206   0.00000  Uiso   1.00
C80    C     0.19820   0.51685   0.29419   0.00000  Uiso   1.00
C81    C     0.17165   0.58010   0.36618   0.00000  Uiso   1.00
C82    C     0.10961   0.51723   0.19780   0.00000  Uiso   1.00
S83    S     0.10181   0.59759   0.31288   0.00000  Uiso   1.00
N84    N     0.78238   0.13956   0.91625   0.00000  Uiso   1.00
H85    H     0.93881   0.09644  -0.16284   0.00000  Uiso   1.00
C86    C     0.85214   0.15544  -0.08558   0.00000  Uiso   1.00
C87    C     0.88313   0.09416  -0.15314   0.00000  Uiso   1.00
C88    C     0.76033   0.06553   0.85026   0.00000  Uiso   1.00
S89    S     0.82412   0.01219  -0.21354   0.00000  Uiso   1.00
N90    N     0.80728   0.53396   1.02127   0.00000  Uiso   1.00
H91    H     0.93761   0.60382   0.83564   0.00000  Uiso   1.00
C92    C     0.87212   0.53827   0.96550   0.00000  Uiso   1.00
C93    C     0.89092   0.59707   0.89732   0.00000  Uiso   1.00
C94    C     0.77838   0.59236   1.00211   0.00000  Uiso   1.00
S95    S     0.82854   0.65248   0.90875   0.00000  Uiso   1.00
N96    N     0.19541   0.82327  -0.02782   0.00000  Uiso   1.00
H97    H     0.17303   1.00916  -0.00003   0.00000  Uiso   1.00
C98    C     0.21569   0.90363  -0.00181   0.00000  Uiso   1.00
C99    C     0.16583   0.94383  -0.01599   0.00000  Uiso   1.00
C100   C     0.13067   0.80116   0.93855   0.00000  Uiso   1.00
S101   S     0.09024   0.87894   0.94049   0.00000  Uiso   1.00
N102   N     0.45473   0.72673   0.95836   0.00000  Uiso   1.00
H103   H     0.31184   0.78379  -0.07112   0.00000  Uiso   1.00
C104   C     0.41927   0.77469   0.92609   0.00000  Uiso   1.00
C105   C     0.34809   0.75153  -0.05207   0.00000  Uiso   1.00
C106   C     0.41040   0.66690   1.00458   0.00000  Uiso   1.00
S107   S     0.32320   0.66771   0.01102   0.00000  Uiso   1.00
N108   N     0.51830   0.27642   0.06376   0.00000  Uiso   1.00
H109   H     0.66016   0.42012   0.06529   0.00000  Uiso   1.00
C110   C     0.55222   0.35401   0.07969   0.00000  Uiso   1.00
C111   C     0.62372   0.36289   0.05538   0.00000  Uiso   1.00
C112   C     0.56399   0.22672   0.02679   0.00000  Uiso   1.00
S113   S     0.65023   0.27308   0.00904   0.00000  Uiso   1.00
loop_
_geom_bond_atom_site_label_1
_geom_bond_atom_site_label_2
_geom_bond_distance
_geom_bond_site_symmetry_2
_ccdc_geom_bond_type
Yb0    O3      2.146   .     S
Yb0    O4      2.079   .     S
Yb0    O7      2.082   .     S
Yb0    O5      2.153   1_556 S
Yb0    O8      2.121   1_556 S
Yb0    O12     2.148   1_556 S
Yb1    O9      2.081   .     S
Yb1    O10     2.125   .     S
Yb1    O14     2.100   .     S
Yb1    O6      2.166   1_554 S
Yb1    O13     2.167   1_554 S
Yb1    O16     2.096   1_554 S
C2     O14     1.293   .     A
C2     C80     1.466   .     S
C2     O16     1.291   1_554 A
O3     C11     1.293   .     A
O4     C11     1.280   .     A
O5     C15     1.273   .     A
O5     Yb0     2.153   1_554 S
O6     Yb1     2.166   1_556 S
O6     C15     1.279   1_556 A
O7     C17     1.283   .     A
O8     Yb0     2.121   1_554 S
O8     C17     1.292   1_554 A
O9     C18     1.288   .     A
O10    C18     1.293   .     A
C11    C64     1.468   .     S
O12    C19     1.266   .     A
O12    Yb0     2.148   1_554 S
O13    Yb1     2.167   1_556 S
O13    C19     1.271   1_556 A
C15    O6      1.279   1_554 A
C15    C106    1.472   1_554 S
O16    Yb1     2.096   1_556 S
O16    C2      1.291   1_556 A
C17    C94     1.456   .     S
C17    O8      1.292   1_556 A
C18    C62     1.470   .     S
C19    C110    1.473   .     S
C19    O13     1.271   1_554 A
Yb20   O23     2.090   .     S
Yb20   O27     2.082   .     S
Yb20   O24     2.097   1_455 S
Yb20   O25     2.151   1_455 S
Yb20   O28     2.117   1_556 S
Yb20   O32     2.147   1_556 S
Yb21   O29     2.085   .     S
Yb21   O34     2.104   .     S
Yb21   O26     2.177   1_554 S
Yb21   O30     2.099   1_655 S
Yb21   O33     2.167   1_655 S
Yb21   O36     2.094   1_554 S
C22    O34     1.294   .     A
C22    C86     1.466   .     S
C22    O36     1.291   1_554 A
O23    C31     1.290   1_455 A
O24    C31     1.293   .     A
O24    Yb20    2.097   1_655 S
O25    C35     1.266   .     A
O25    Yb20    2.151   1_655 S
O26    C35     1.272   .     A
O26    Yb21    2.177   1_556 S
O27    C37     1.285   .     A
O28    Yb20    2.117   1_554 S
O28    C37     1.290   1_554 A
O29    C38     1.291   1_655 A
O30    C38     1.293   .     A
O30    Yb21    2.099   1_455 S
C31    C68     1.465   .     S
C31    O23     1.290   1_655 A
O32    C39     1.269   .     A
O32    Yb20    2.147   1_554 S
O33    C39     1.271   .     A
O33    Yb21    2.167   1_455 S
C35    C92     1.468   .     S
O36    Yb21    2.094   1_556 S
O36    C22     1.291   1_556 A
C37    C100    1.459   .     S
C37    O28     1.290   1_556 A
C38    C70     1.461   .     S
C38    O29     1.291   1_455 A
C39    C82     1.459   .     S
Yb40   O43     2.104   .     S
Yb40   O47     2.094   .     S
Yb40   O44     2.095   1_565 S
Yb40   O45     2.213   1_565 S
Yb40   O48     2.107   1_554 S
Yb40   O52     2.123   1_554 S
Yb41   O49     2.143   .     S
Yb41   O54     2.139   .     S
Yb41   O46     2.165   1_556 S
Yb41   O50     2.161   1_545 S
Yb41   O53     2.148   1_545 S
Yb41   O56     2.133   1_556 S
C42    O54     1.293   .     A
C42    C88     1.467   .     S
C42    O56     1.281   1_556 A
O43    C51     1.291   1_565 A
O44    C51     1.292   .     A
O44    Yb40    2.095   1_545 S
O45    C55     1.291   .     A
O45    Yb40    2.213   1_545 S
O46    C55     1.292   .     A
O46    Yb41    2.165   1_554 S
O47    C57     1.293   .     A
O48    Yb40    2.107   1_556 S
O48    C57     1.290   1_556 A
O49    C58     1.268   1_545 A
O50    C58     1.276   .     A
O50    Yb41    2.161   1_565 S
C51    C74     1.469   .     S
C51    O43     1.291   1_545 A
O52    C59     1.274   .     A
O52    Yb40    2.123   1_556 S
O53    C59     1.270   .     A
O53    Yb41    2.148   1_565 S
C55    C112    1.465   .     S
O56    Yb41    2.133   1_554 S
O56    C42     1.281   1_554 A
C57    C98     1.467   .     S
C57    O48     1.290   1_554 A
C58    C76     1.467   .     S
C58    O49     1.268   1_565 A
C59    C104    1.467   .     S
N60    C62     1.347   .     A
N60    C64     1.353   .     A
H61    C63     1.083   .     S
C62    C63     1.377   .     A
C63    S65     1.690   .     A
C64    S65     1.713   .     A
N66    C70     1.345   .     A
N66    C68     1.337   1_455 A
H67    C69     1.082   .     S
C68    C69     1.378   .     A
C68    N66     1.337   1_655 A
C69    S71     1.709   .     A
C70    S71     1.713   1_455 A
S71    C70     1.713   1_655 A
N72    C76     1.348   .     A
N72    C74     1.346   1_565 A
H73    C75     1.084   .     S
C74    C75     1.379   .     A
C74    N72     1.346   1_545 A
C75    S77     1.702   .     A
C76    S77     1.717   1_565 A
S77    C76     1.717   1_545 A
N78    C80     1.339   .     A
N78    C82     1.340   .     A
H79    C81     1.083   .     S
C80    C81     1.375   .     A
C81    S83     1.706   .     A
C82    S83     1.711   .     A
N84    C88     1.348   .     A
N84    C86     1.343   1_556 A
H85    C87     1.084   .     S
C86    C87     1.376   .     A
C86    N84     1.343   1_554 A
C87    S89     1.704   .     A
C88    S89     1.715   1_556 A
S89    C88     1.715   1_554 A
N90    C92     1.340   .     A
N90    C94     1.343   .     A
H91    C93     1.079   .     S
C92    C93     1.375   .     A
C93    S95     1.703   .     A
C94    S95     1.714   .     A
N96    C98     1.334   .     A
N96    C100    1.340   1_554 A
H97    C99     1.084   .     S
C98    C99     1.379   .     A
C99    S101    1.718   1_554 A
C100   S101    1.712   .     A
C100   N96     1.340   1_556 A
S101   C99     1.718   1_556 A
N102   C104    1.344   .     A
N102   C106    1.348   .     A
H103   C105    1.078   .     S
C104   C105    1.375   1_556 A
C105   S107    1.708   .     A
C105   C104    1.375   1_554 A
C106   S107    1.720   1_556 A
C106   C15     1.472   1_556 S
S107   C106    1.720   1_554 A
N108   C110    1.343   .     A
N108   C112    1.348   .     A
H109   C111    1.078   .     S
C110   C111    1.381   .     A
C111   S113    1.702   .     A
C112   S113    1.715   .     A
