data_kag+N106+E35
_audit_creation_date              2025-01-21
_audit_creation_method            'Materials Studio'
_symmetry_space_group_name_H-M    'P1'
_symmetry_Int_Tables_number       1
_symmetry_cell_setting            triclinic
loop_
_symmetry_equiv_pos_as_xyz
  x,y,z
_cell_length_a                    33.4537
_cell_length_b                    34.9880
_cell_length_c                    14.6149
_cell_angle_alpha                 94.7978
_cell_angle_beta                  80.3641
_cell_angle_gamma                 125.8514
loop_
_atom_site_label
_atom_site_type_symbol
_atom_site_fract_x
_atom_site_fract_y
_atom_site_fract_z
_atom_site_U_iso_or_equiv
_atom_site_adp_type
_atom_site_occupancy
Y0     Y     0.53116   0.55900  -0.00967   0.00000  Uiso   1.00
Y1     Y     0.47567   0.44974   1.02547   0.00000  Uiso   1.00
O2     O     0.59569   0.55375  -0.04663   0.00000  Uiso   1.00
O3     O     0.52113   0.49864   0.90027   0.00000  Uiso   1.00
C4     C     0.44430   0.36237   1.07410   0.00000  Uiso   1.00
O5     O     0.44688   0.43894   0.88928   0.00000  Uiso   1.00
O6     O     0.56739   0.63663   0.01375   0.00000  Uiso   1.00
O7     O     0.54487   0.61041   0.88392   0.00000  Uiso   1.00
O8     O     0.55828   0.48253   1.01985   0.00000  Uiso   1.00
O9     O     0.48454   0.50976   0.11439   0.00000  Uiso   1.00
O10    O     0.55773   0.56991   0.12982   0.00000  Uiso   1.00
O11    O     0.44875   0.52518  -0.01031   0.00000  Uiso   1.00
C12    C     0.59740   0.52123   0.98244   0.00000  Uiso   1.00
O13    O     0.41171   0.45600   1.06437   0.00000  Uiso   1.00
C14    C     0.48276   0.47399   0.84812   0.00000  Uiso   1.00
O15    O     0.43857   0.37238   0.99873   0.00000  Uiso   1.00
O16    O     0.46417   0.39729   0.12688   0.00000  Uiso   1.00
C17    C     0.56405   0.64596  -0.06483   0.00000  Uiso   1.00
C18    C     0.40954   0.48696   0.02864   0.00000  Uiso   1.00
C19    C     0.52145   0.53455   0.16938   0.00000  Uiso   1.00
Y20    Y     0.97237   0.52619  -0.00153   0.00000  Uiso   1.00
Y21    Y     0.03306   0.48331   1.00068   0.00000  Uiso   1.00
O22    O     0.05133   0.59153  -0.02457   0.00000  Uiso   1.00
O23    O     1.02928   0.52416   0.89413   0.00000  Uiso   1.00
C24    C     0.09936   0.46433   1.01326   0.00000  Uiso   1.00
O25    O     0.01139   0.45577   0.85874   0.00000  Uiso   1.00
O26    O     0.92746   0.55592   0.03591   0.00000  Uiso   1.00
O27    O     0.92569   0.52672   0.90413   0.00000  Uiso   1.00
O28    O     0.08378   0.56034   1.03636   0.00000  Uiso   1.00
O29    O    -0.02531   0.48415   0.10414   0.00000  Uiso   1.00
O30    O     0.98618   0.54948   0.14612   0.00000  Uiso   1.00
O31    O     0.91766   0.44714  -0.01966   0.00000  Uiso   1.00
C32    C     0.08686   0.59609   1.00955   0.00000  Uiso   1.00
O33    O     0.95553   0.41614   1.01958   0.00000  Uiso   1.00
C34    C     0.01297   0.48831   0.83097   0.00000  Uiso   1.00
O35    O     0.09708   0.47988   0.94125   0.00000  Uiso   1.00
O36    O     0.06573   0.45674   0.07934   0.00000  Uiso   1.00
C37    C     0.90914   0.54503  -0.03860   0.00000  Uiso   1.00
C38    C     0.91734   0.41147  -0.00247   0.00000  Uiso   1.00
C39    C    -0.01388   0.51745   0.17180   0.00000  Uiso   1.00
Y40    Y     0.47651   0.02514   1.02648   0.00000  Uiso   1.00
Y41    Y     0.53437   0.97866  -0.02866   0.00000  Uiso   1.00
O42    O     0.41274   0.94879   1.05313   0.00000  Uiso   1.00
O43    O     0.48723  -0.02162   0.10212   0.00000  Uiso   1.00
C44    C     0.56922   0.92682  -0.08973   0.00000  Uiso   1.00
O45    O     0.56143   1.00160   0.11047   0.00000  Uiso   1.00
O46    O     0.44578   0.06382   0.99363   0.00000  Uiso   1.00
O47    O     0.45667   0.06558   0.13142   0.00000  Uiso   1.00
O48    O     0.45195   0.91897  -0.02753   0.00000  Uiso   1.00
O49    O     0.52327   1.02488   0.89517   0.00000  Uiso   1.00
O50    O     0.44743  -0.00227   0.89043   0.00000  Uiso   1.00
O51    O     0.55802   0.08315   1.03346   0.00000  Uiso   1.00
C52    C     0.41202   0.91422   0.01351   0.00000  Uiso   1.00
O53    O     0.59728   0.05545  -0.05490   0.00000  Uiso   1.00
C54    C     0.52479  -0.00339   0.15496   0.00000  Uiso   1.00
O55    O     0.57680   0.94857  -0.01447   0.00000  Uiso   1.00
O56    O     0.54535   0.93366   0.86355   0.00000  Uiso   1.00
C57    C     0.44410   0.08002   1.07313   0.00000  Uiso   1.00
C58    C     0.59796   0.08894   0.98995   0.00000  Uiso   1.00
C59    C     0.48442   0.00400   0.84458   0.00000  Uiso   1.00
C60    C     0.49992   0.50587   0.45895   0.00000  Uiso   1.00
C61    C     0.46410   0.47258   0.40339   0.00000  Uiso   1.00
C62    C     0.47177   0.48157   0.30845   0.00000  Uiso   1.00
C63    C     0.51519   0.52320   0.26809   0.00000  Uiso   1.00
C64    C     0.55079   0.55493   0.32494   0.00000  Uiso   1.00
N65    N     0.54233   0.54565   0.41752   0.00000  Uiso   1.00
C66    C     0.49346   0.49871   0.56082   0.00000  Uiso   1.00
N67    N     0.53403   0.52490   0.60608   0.00000  Uiso   1.00
C68    C     0.53130   0.51915   0.69855   0.00000  Uiso   1.00
C69    C     0.48577   0.48487   0.75073   0.00000  Uiso   1.00
C70    C     0.44321   0.45880   0.70662   0.00000  Uiso   1.00
C71    C     0.44675   0.46579   0.61227   0.00000  Uiso   1.00
H72    H     0.44356   0.45609   0.26674   0.00000  Uiso   1.00
H73    H     0.58480   0.58754   0.29626   0.00000  Uiso   1.00
H74    H     0.56486   0.54037   0.73052   0.00000  Uiso   1.00
H75    H     0.40718   0.43258   0.74493   0.00000  Uiso   1.00
H76    H     0.43059   0.43970   0.43178   0.00000  Uiso   1.00
H77    H     0.41303   0.44550   0.58100   0.00000  Uiso   1.00
C78    C    -0.00590   0.49496   0.55254   0.00000  Uiso   1.00
C79    C    -0.02562   0.45115   0.59315   0.00000  Uiso   1.00
C80    C    -0.02069   0.44895   0.68504   0.00000  Uiso   1.00
C81    C     0.00318   0.49005   0.73726   0.00000  Uiso   1.00
C82    C     1.02003   0.53278   0.69617   0.00000  Uiso   1.00
N83    N     1.01545   0.53421   0.60584   0.00000  Uiso   1.00
C84    C    -0.00741   0.49970   0.45335   0.00000  Uiso   1.00
N85    N     0.99683   0.53820   0.42511   0.00000  Uiso   1.00
C86    C     0.99603   0.54511   0.33542   0.00000  Uiso   1.00
C87    C    -0.00918   0.51214   0.26773   0.00000  Uiso   1.00
C88    C    -0.01262   0.47271   0.29444   0.00000  Uiso   1.00
C89    C    -0.01164   0.46637   0.38694   0.00000  Uiso   1.00
H90    H    -0.03516   0.41511   0.71508   0.00000  Uiso   1.00
H91    H     1.03832   0.56518   0.73465   0.00000  Uiso   1.00
H92    H     0.99867   0.57598   0.31734   0.00000  Uiso   1.00
H93    H    -0.01642   0.44665   0.24399   0.00000  Uiso   1.00
H94    H    -0.04474   0.41878   0.55499   0.00000  Uiso   1.00
H95    H    -0.01356   0.43597   0.40522   0.00000  Uiso   1.00
C96    C     0.50338  -0.00135   0.44923   0.00000  Uiso   1.00
C97    C     0.46706   0.99266   0.40090   0.00000  Uiso   1.00
C98    C     0.47490   0.99392   0.30416   0.00000  Uiso   1.00
C99    C     0.51893   0.00180   0.25588   0.00000  Uiso   1.00
C100   C     0.55545   0.01024   0.30633   0.00000  Uiso   1.00
N101   N     0.54672   0.00815   0.40044   0.00000  Uiso   1.00
C102   C     0.49650  -0.00437   0.55149   0.00000  Uiso   1.00
N103   N     0.53743   0.01551   0.59476   0.00000  Uiso   1.00
C104   C     0.53432   0.01599   0.68873   0.00000  Uiso   1.00
C105   C     0.48801  -0.00366   0.74432   0.00000  Uiso   1.00
C106   C     0.44516   0.97349   0.70151   0.00000  Uiso   1.00
C107   C     0.44914   0.97273   0.60527   0.00000  Uiso   1.00
H108   H     0.44629   0.98800   0.26713   0.00000  Uiso   1.00
H109   H     0.59013   0.01680   0.27109   0.00000  Uiso   1.00
H110   H     0.56810   0.03336   0.71969   0.00000  Uiso   1.00
H111   H     0.40863   0.95717   0.74254   0.00000  Uiso   1.00
H112   H     0.43298   0.98709   0.43661   0.00000  Uiso   1.00
H113   H     0.41538   0.95455   0.57421   0.00000  Uiso   1.00
C114   C     0.26904   0.46443   1.03350   0.00000  Uiso   1.00
C115   C     0.27244   0.43694   0.09222   0.00000  Uiso   1.00
C116   C     0.31835   0.44423   0.09120   0.00000  Uiso   1.00
C117   C     0.36068   0.47885   1.03222   0.00000  Uiso   1.00
C118   C     0.35550   0.50534   0.97461   0.00000  Uiso   1.00
N119   N     0.31053   0.49740   0.97640   0.00000  Uiso   1.00
C120   C     0.22206   0.45901   0.02998   0.00000  Uiso   1.00
N121   N     0.21773   0.47397   0.95170   0.00000  Uiso   1.00
C122   C     0.17779   0.47377   0.94403   0.00000  Uiso   1.00
C123   C     0.13934   0.45884   0.01907   0.00000  Uiso   1.00
C124   C     0.14236   0.44255   0.10030   0.00000  Uiso   1.00
C125   C     0.18363   0.44237   0.10599   0.00000  Uiso   1.00
H126   H     0.32077   0.42294   0.13658   0.00000  Uiso   1.00
H127   H     0.38695   0.53204   0.92727   0.00000  Uiso   1.00
H128   H     0.17710   0.48691   0.88025   0.00000  Uiso   1.00
H129   H     0.11362   0.43123   0.15994   0.00000  Uiso   1.00
H130   H     0.24011   0.40966   0.13714   0.00000  Uiso   1.00
H131   H     0.18622   0.43128   0.17031   0.00000  Uiso   1.00
C132   C     0.78189   0.27380  -0.01033   0.00000  Uiso   1.00
C133   C     0.78262   0.31376   0.98023   0.00000  Uiso   1.00
C134   C     0.82688   0.35848   0.98195   0.00000  Uiso   1.00
C135   C     0.87070   0.36377  -0.00686   0.00000  Uiso   1.00
C136   C     0.86880   0.32285  -0.00017   0.00000  Uiso   1.00
N137   N     0.82501   0.27941  -0.00217   0.00000  Uiso   1.00
C138   C     0.73478   0.22611  -0.00775   0.00000  Uiso   1.00
N139   N     0.73445   0.18960  -0.04936   0.00000  Uiso   1.00
C140   C     0.69147   0.14544  -0.05112   0.00000  Uiso   1.00
C141   C     0.64558   0.13623  -0.00888   0.00000  Uiso   1.00
C142   C     0.64563   0.17330   1.03603   0.00000  Uiso   1.00
C143   C     0.68991   0.21800   1.03688   0.00000  Uiso   1.00
H144   H     0.82658   0.38891   0.97527   0.00000  Uiso   1.00
H145   H     0.90195   0.32539   0.00707   0.00000  Uiso   1.00
H146   H     0.69318   0.11776  -0.08580   0.00000  Uiso   1.00
H147   H     0.61137   0.16788   1.07061   0.00000  Uiso   1.00
H148   H     0.74930   0.31049   0.97101   0.00000  Uiso   1.00
H149   H     0.68904   0.24587   1.07299   0.00000  Uiso   1.00
C150   C     0.78475   0.54580  -0.06156   0.00000  Uiso   1.00
C151   C     0.79749   0.52163   0.87275   0.00000  Uiso   1.00
C152   C     0.84030   0.52400   0.87630   0.00000  Uiso   1.00
C153   C     0.86973   0.54966   0.94611   0.00000  Uiso   1.00
C154   C     0.85708   0.57524   0.00756   0.00000  Uiso   1.00
N155   N     0.81530   0.57262   0.00246   0.00000  Uiso   1.00
C156   C     0.73673   0.53931  -0.05560   0.00000  Uiso   1.00
N157   N     0.73460   0.57707  -0.04100   0.00000  Uiso   1.00
C158   C     0.69066   0.57232  -0.03029   0.00000  Uiso   1.00
C159   C     0.64554   0.52740  -0.03089   0.00000  Uiso   1.00
C160   C     0.64701   0.48810   0.95520   0.00000  Uiso   1.00
C161   C     0.69253   0.49395   0.94196   0.00000  Uiso   1.00
H162   H     0.84901   0.50394   0.82742   0.00000  Uiso   1.00
H163   H     0.87923   0.59578   0.06178   0.00000  Uiso   1.00
H164   H     0.69088   0.60342  -0.01918   0.00000  Uiso   1.00
H165   H     0.61299   0.45290   0.95397   0.00000  Uiso   1.00
H166   H     0.77391   0.50025   0.82080   0.00000  Uiso   1.00
H167   H     0.69309   0.46322   0.93275   0.00000  Uiso   1.00
C168   C     0.27314   0.77831   1.01846   0.00000  Uiso   1.00
C169   C     0.31803   0.78232   1.00049   0.00000  Uiso   1.00
C170   C     0.36323   0.82663   0.99921   0.00000  Uiso   1.00
C171   C     0.36401   0.86709   1.01608   0.00000  Uiso   1.00
C172   C     0.31831   0.86166   1.03346   0.00000  Uiso   1.00
N173   N     0.27459   0.81801   1.03353   0.00000  Uiso   1.00
C174   C     0.22465   0.73171   1.02068   0.00000  Uiso   1.00
N175   N     0.18628   0.72707   0.98759   0.00000  Uiso   1.00
C176   C     0.14157   0.68448  -0.01513   0.00000  Uiso   1.00
C177   C     0.13373   0.64343   0.01654   0.00000  Uiso   1.00
C178   C     0.17240   0.64797   0.05363   0.00000  Uiso   1.00
C179   C     0.21762   0.69183   0.05595   0.00000  Uiso   1.00
H180   H     0.39756   0.82918   0.98543   0.00000  Uiso   1.00
H181   H     0.31735   0.89205   1.04602   0.00000  Uiso   1.00
H182   H     0.11255   0.68265  -0.04325   0.00000  Uiso   1.00
H183   H     0.16798   0.61753   0.08027   0.00000  Uiso   1.00
H184   H     0.31831   0.75161   0.98605   0.00000  Uiso   1.00
H185   H     0.24671   0.69447   0.08560   0.00000  Uiso   1.00
C186   C     0.59503   0.82076  -0.13460   0.00000  Uiso   1.00
C187   C     0.56921   0.82465  -0.19589   0.00000  Uiso   1.00
C188   C     0.56338   0.86132  -0.18551   0.00000  Uiso   1.00
C189   C     0.58346   0.89416  -0.11501   0.00000  Uiso   1.00
C190   C     0.61207   0.89113  -0.06004   0.00000  Uiso   1.00
N191   N     0.61635   0.85469  -0.07005   0.00000  Uiso   1.00
C192   C     0.59382   0.77796  -0.12771   0.00000  Uiso   1.00
N193   N     0.60504   0.77084  -0.04824   0.00000  Uiso   1.00
C194   C     0.59872   0.73012  -0.02938   0.00000  Uiso   1.00
C195   C     0.57875   0.69278  -0.09163   0.00000  Uiso   1.00
C196   C     0.56960   0.70003  -0.17644   0.00000  Uiso   1.00
C197   C     0.57729   0.74262  -0.19508   0.00000  Uiso   1.00
H198   H     0.54082   0.86240   0.77104   0.00000  Uiso   1.00
H199   H     0.62871   0.91612  -0.00551   0.00000  Uiso   1.00
H200   H     0.60738   0.72631   0.03594   0.00000  Uiso   1.00
H201   H     0.55508   0.67228   0.77293   0.00000  Uiso   1.00
H202   H     0.55092   0.79841   0.75252   0.00000  Uiso   1.00
H203   H     0.56923   0.74694   0.73956   0.00000  Uiso   1.00
C204   C     0.42111   0.23100   1.11448   0.00000  Uiso   1.00
C205   C     0.43940   0.26518   1.18388   0.00000  Uiso   1.00
C206   C     0.44482   0.30747   1.17336   0.00000  Uiso   1.00
C207   C     0.43190   0.31562   1.09435   0.00000  Uiso   1.00
C208   C     0.41144   0.27971   1.02928   0.00000  Uiso   1.00
N209   N     0.40728   0.23932   1.04020   0.00000  Uiso   1.00
C210   C     0.42145   0.18868   1.11272   0.00000  Uiso   1.00
N211   N     0.41735   0.16609   1.03067   0.00000  Uiso   1.00
C212   C     0.42174   0.12978   1.01864   0.00000  Uiso   1.00
C213   C     0.43183   0.11447   1.09161   0.00000  Uiso   1.00
C214   C     0.43423   0.13567   1.17820   0.00000  Uiso   1.00
C215   C     0.42878   0.17265   1.18930   0.00000  Uiso   1.00
H216   H     0.46100   0.33450   1.22493   0.00000  Uiso   1.00
H217   H     0.40078   0.28454   0.96756   0.00000  Uiso   1.00
H218   H     0.41920   0.11418   0.95077   0.00000  Uiso   1.00
H219   H     0.44147   0.12445   1.23637   0.00000  Uiso   1.00
H220   H     0.45173   0.26075   1.24333   0.00000  Uiso   1.00
H221   H     0.43097   0.18851   1.25665   0.00000  Uiso   1.00
loop_
_geom_bond_atom_site_label_1
_geom_bond_atom_site_label_2
_geom_bond_distance
_geom_bond_site_symmetry_2
_ccdc_geom_bond_type
Y0     O2      2.246   .     S
Y0     O6      2.256   .     S
Y0     O9      2.262   .     S
Y0     O10     2.274   .     S
Y0     O11     2.277   .     S
Y0     O3      2.271   1_554 S
Y0     O7      2.264   1_554 S
Y1     O3      2.265   .     S
Y1     O5      2.263   .     S
Y1     O8      2.277   .     S
Y1     O13     2.252   .     S
Y1     O15     2.252   .     S
Y1     O9      2.265   1_556 S
Y1     O16     2.269   1_556 S
O2     C12     1.282   1_554 A
O3     C14     1.376   .     S
O3     Y0      2.271   1_556 S
C4     O15     1.260   .     A
C4     C207    1.477   .     S
C4     O16     1.262   1_556 A
O5     C14     1.210   .     D
O6     C17     1.259   .     A
O7     Y0      2.264   1_556 S
O7     C17     1.261   1_556 A
O8     C12     1.286   .     A
O9     C19     1.373   .     S
O9     Y1      2.265   1_554 S
O10    C19     1.210   .     D
O11    C18     1.287   .     A
C12    O2      1.282   1_556 A
C12    C159    1.474   1_556 S
O13    C18     1.285   1_556 A
C14    C69     1.476   .     S
O16    Y1      2.269   1_554 S
O16    C4      1.262   1_554 A
C17    C195    1.476   .     S
C17    O7      1.261   1_554 A
C18    O13     1.285   1_554 A
C18    C117    1.478   1_554 S
C19    C63     1.476   .     S
Y20    O26     2.258   .     S
Y20    O30     2.266   .     S
Y20    O31     2.276   .     S
Y20    O22     2.253   1_655 S
Y20    O23     2.264   1_554 S
Y20    O27     2.258   1_554 S
Y20    O29     2.260   1_655 S
Y21    O25     2.260   .     S
Y21    O28     2.262   .     S
Y21    O35     2.240   .     S
Y21    O23     2.266   1_455 S
Y21    O29     2.274   1_556 S
Y21    O33     2.248   1_455 S
Y21    O36     2.274   1_556 S
O22    Y20     2.253   1_455 S
O22    C32     1.285   1_554 A
O23    Y20     2.264   1_556 S
O23    Y21     2.266   1_655 S
O23    C34     1.377   1_655 S
C24    O35     1.257   .     A
C24    O36     1.264   1_556 A
C24    C123    1.475   1_556 S
O25    C34     1.210   .     D
O26    C37     1.260   .     A
O27    Y20     2.258   1_556 S
O27    C37     1.260   1_556 A
O28    C32     1.283   .     A
O29    C39     1.376   .     S
O29    Y20     2.260   1_455 S
O29    Y21     2.274   1_554 S
O30    C39     1.210   1_655 D
O31    C38     1.287   .     A
C32    O22     1.285   1_556 A
C32    C177    1.482   1_556 S
O33    Y21     2.248   1_655 S
O33    C38     1.284   1_556 A
C34    C81     1.475   .     S
C34    O23     1.377   1_455 S
O36    Y21     2.274   1_554 S
O36    C24     1.264   1_554 A
C37    O27     1.260   1_554 A
C37    C153    1.473   1_554 S
C38    C135    1.480   .     S
C38    O33     1.284   1_554 A
C39    C87     1.475   .     S
C39    O30     1.210   1_455 D
Y40    O46     2.241   .     S
Y40    O50     2.248   .     S
Y40    O51     2.267   .     S
Y40    O42     2.249   1_545 S
Y40    O43     2.270   1_556 S
Y40    O47     2.278   1_556 S
Y40    O49     2.267   1_545 S
Y41    O45     2.256   .     S
Y41    O48     2.283   .     S
Y41    O55     2.248   .     S
Y41    O43     2.262   1_565 S
Y41    O49     2.266   1_554 S
Y41    O53     2.252   1_565 S
Y41    O56     2.273   1_554 S
O42    Y40     2.249   1_565 S
O42    C52     1.285   1_556 A
O43    C54     1.373   .     S
O43    Y40     2.270   1_554 S
O43    Y41     2.262   1_545 S
C44    O55     1.257   .     A
C44    C189    1.476   .     S
C44    O56     1.263   1_554 A
O45    C54     1.207   1_565 D
O46    C57     1.257   .     A
O47    Y40     2.278   1_554 S
O47    C57     1.264   1_554 A
O48    C52     1.288   .     A
O49    Y40     2.267   1_565 S
O49    Y41     2.266   1_556 S
O49    C59     1.374   1_565 S
O50    C59     1.207   .     D
O51    C58     1.285   .     A
C52    O42     1.285   1_554 A
C52    C171    1.479   1_554 S
O53    Y41     2.252   1_545 S
O53    C58     1.284   1_554 A
C54    C99     1.465   .     S
C54    O45     1.207   1_545 D
O56    Y41     2.273   1_556 S
O56    C44     1.263   1_556 A
C57    C213    1.477   .     S
C57    O47     1.264   1_556 A
C58    O53     1.284   1_556 A
C58    C141    1.481   1_556 S
C59    C105    1.465   .     S
C59    O49     1.374   1_545 S
C60    C61     1.409   .     A
C60    N65     1.363   .     A
C60    C66     1.489   .     S
C61    C62     1.396   .     A
C61    H76     1.080   .     S
C62    C63     1.399   .     A
C62    H72     1.083   .     S
C63    C64     1.403   .     A
C64    N65     1.362   .     A
C64    H73     1.082   .     S
C66    N67     1.364   .     A
C66    C71     1.406   .     A
N67    C68     1.363   .     A
C68    C69     1.401   .     A
C68    H74     1.082   .     S
C69    C70     1.401   .     A
C70    C71     1.394   .     A
C70    H75     1.083   .     S
C71    H77     1.080   .     S
C78    C79     1.405   .     A
C78    C84     1.485   .     S
C78    N83     1.364   1_455 A
C79    C80     1.394   .     A
C79    H94     1.081   .     S
C80    C81     1.401   .     A
C80    H90     1.083   .     S
C81    C82     1.401   1_455 A
C82    N83     1.362   .     A
C82    H91     1.083   .     S
C82    C81     1.401   1_655 A
N83    C78     1.364   1_655 A
C84    C89     1.409   .     A
C84    N85     1.362   1_455 A
N85    C86     1.360   .     A
N85    C84     1.362   1_655 A
C86    H92     1.083   .     S
C86    C87     1.404   1_655 A
C87    C88     1.399   .     A
C87    C86     1.404   1_455 A
C88    C89     1.397   .     A
C88    H93     1.084   .     S
C89    H95     1.081   .     S
C96    N101    1.360   .     A
C96    C102    1.477   .     S
C96    C97     1.408   1_545 A
C97    C98     1.394   .     A
C97    H112    1.080   .     S
C97    C96     1.408   1_565 A
C98    H108    1.084   .     S
C98    C99     1.397   1_565 A
C99    C100    1.402   .     A
C99    C98     1.397   1_545 A
C100   N101    1.356   .     A
C100   H109    1.082   .     S
C102   N103    1.364   .     A
C102   C107    1.404   1_545 A
N103   C104    1.359   .     A
C104   C105    1.399   .     A
C104   H110    1.083   .     S
C105   C106    1.400   1_545 A
C106   C107    1.390   .     A
C106   H111    1.083   .     S
C106   C105    1.400   1_565 A
C107   H113    1.081   .     S
C107   C102    1.404   1_565 A
C114   N119    1.361   .     A
C114   C115    1.405   1_556 A
C114   C120    1.478   1_556 S
C115   C116    1.399   .     A
C115   H130    1.082   .     S
C115   C114    1.405   1_554 A
C116   H126    1.083   .     S
C116   C117    1.404   1_554 A
C117   C118    1.402   .     A
C117   C116    1.404   1_556 A
C117   C18     1.478   1_556 S
C118   N119    1.356   .     A
C118   H127    1.082   .     S
C120   C125    1.407   .     A
C120   C114    1.478   1_554 S
C120   N121    1.360   1_554 A
N121   C122    1.355   .     A
N121   C120    1.360   1_556 A
C122   H128    1.083   .     S
C122   C123    1.402   1_556 A
C123   C124    1.402   .     A
C123   C122    1.402   1_554 A
C123   C24     1.475   1_554 S
C124   C125    1.401   .     A
C124   H129    1.083   .     S
C125   H131    1.081   .     S
C132   N137    1.362   .     A
C132   C138    1.477   .     S
C132   C133    1.402   1_554 A
C133   C134    1.390   .     A
C133   H148    1.083   .     S
C133   C132    1.402   1_556 A
C134   H144    1.083   .     S
C134   C135    1.403   1_556 A
C135   C136    1.406   .     A
C135   C134    1.403   1_554 A
C136   N137    1.362   .     A
C136   H145    1.082   .     S
C138   N139    1.363   .     A
C138   C143    1.401   1_554 A
N139   C140    1.363   .     A
C140   C141    1.406   .     A
C140   H146    1.082   .     S
C141   C142    1.403   1_554 A
C141   C58     1.481   1_554 S
C142   C143    1.389   .     A
C142   H147    1.083   .     S
C142   C141    1.403   1_556 A
C143   H149    1.083   .     S
C143   C138    1.401   1_556 A
C150   N155    1.360   .     A
C150   C156    1.473   .     S
C150   C151    1.403   1_554 A
C151   C152    1.395   .     A
C151   H166    1.083   .     S
C151   C150    1.403   1_556 A
C152   C153    1.401   .     A
C152   H162    1.083   .     S
C153   C154    1.403   1_556 A
C153   C37     1.473   1_556 S
C154   N155    1.360   .     A
C154   H163    1.082   .     S
C154   C153    1.403   1_554 A
C156   N157    1.362   .     A
C156   C161    1.402   1_554 A
N157   C158    1.362   .     A
C158   C159    1.404   .     A
C158   H164    1.083   .     S
C159   C160    1.401   1_554 A
C159   C12     1.474   1_554 S
C160   C161    1.393   .     A
C160   H165    1.083   .     S
C160   C159    1.401   1_556 A
C161   H167    1.083   .     S
C161   C156    1.402   1_556 A
C168   C169    1.404   .     A
C168   N173    1.362   .     A
C168   C174    1.478   .     S
C169   C170    1.393   .     A
C169   H184    1.083   .     S
C170   C171    1.402   .     A
C170   H180    1.083   .     S
C171   C172    1.405   .     A
C171   C52     1.479   1_556 S
C172   N173    1.362   .     A
C172   H181    1.082   .     S
C174   N175    1.363   .     A
C174   C179    1.401   1_556 A
N175   C176    1.363   1_556 A
C176   C177    1.405   .     A
C176   H182    1.083   .     S
C176   N175    1.363   1_554 A
C177   C178    1.405   .     A
C177   C32     1.482   1_554 S
C178   C179    1.391   .     A
C178   H183    1.083   .     S
C179   H185    1.083   .     S
C179   C174    1.401   1_554 A
C186   C187    1.409   .     A
C186   N191    1.362   .     A
C186   C192    1.486   .     S
C187   C188    1.399   .     A
C187   H202    1.080   1_554 S
C188   C189    1.401   .     A
C188   H198    1.083   1_554 S
C189   C190    1.401   .     A
C190   N191    1.357   .     A
C190   H199    1.082   .     S
C192   N193    1.362   .     A
C192   C197    1.408   .     A
N193   C194    1.358   .     A
C194   C195    1.401   .     A
C194   H200    1.083   .     S
C195   C196    1.402   .     A
C196   C197    1.399   .     A
C196   H201    1.083   1_554 S
C197   H203    1.080   1_554 S
H198   C188    1.083   1_556 S
H201   C196    1.083   1_556 S
H202   C187    1.080   1_556 S
H203   C197    1.080   1_556 S
C204   C205    1.408   .     A
C204   N209    1.362   .     A
C204   C210    1.485   .     S
C205   C206    1.400   .     A
C205   H220    1.080   .     S
C206   C207    1.403   .     A
C206   H216    1.083   .     S
C207   C208    1.401   .     A
C208   N209    1.357   .     A
C208   H217    1.083   .     S
C210   N211    1.361   .     A
C210   C215    1.409   .     A
N211   C212    1.356   .     A
C212   C213    1.402   .     A
C212   H218    1.083   .     S
C213   C214    1.402   .     A
C214   C215    1.402   .     A
C214   H219    1.083   .     S
C215   H221    1.080   .     S
