data_kag+N248+E9
_audit_creation_date              2025-01-21
_audit_creation_method            'Materials Studio'
_symmetry_space_group_name_H-M    'P1'
_symmetry_Int_Tables_number       1
_symmetry_cell_setting            triclinic
loop_
_symmetry_equiv_pos_as_xyz
  x,y,z
_cell_length_a                    39.3891
_cell_length_b                    43.1332
_cell_length_c                    19.5365
_cell_angle_alpha                 87.8709
_cell_angle_beta                  92.5474
_cell_angle_gamma                 125.4233
loop_
_atom_site_label
_atom_site_type_symbol
_atom_site_fract_x
_atom_site_fract_y
_atom_site_fract_z
_atom_site_U_iso_or_equiv
_atom_site_adp_type
_atom_site_occupancy
O0     O     0.51680   0.53284   0.88714   0.00000  Uiso   1.00
Yb1    Yb    0.48668   0.46007   1.00557   0.00000  Uiso   1.00
C2     C     0.46780   0.39330   0.01257   0.00000  Uiso   1.00
Yb3    Yb    0.51810   0.54163  -0.00421   0.00000  Uiso   1.00
O4     O     0.49084   0.46888   0.89259   0.00000  Uiso   1.00
C5     C     0.44188   0.49685   0.03440   0.00000  Uiso   1.00
C6     C     0.50276   0.50046   0.85849   0.00000  Uiso   1.00
O7     O     0.50049   0.57883   0.97538   0.00000  Uiso   1.00
C8     C     0.53683   0.60835   0.98876   0.00000  Uiso   1.00
O9     O     0.53664   0.47564   0.93825   0.00000  Uiso   1.00
O10    O     0.54677   0.51280   0.01955   0.00000  Uiso   1.00
O11    O     0.48820   0.46891   0.11428   0.00000  Uiso   1.00
O12    O     0.56420   0.60217   0.00597   0.00000  Uiso   1.00
O13    O     0.51397   0.53281   0.10884   0.00000  Uiso   1.00
C14    C     0.56305   0.50491   0.96722   0.00000  Uiso   1.00
C15    C     0.50215   0.50126   0.14294   0.00000  Uiso   1.00
O16    O     0.50418   0.42278   0.02588   0.00000  Uiso   1.00
O17    O     0.44049   0.39956   0.99544   0.00000  Uiso   1.00
O18    O     0.46833   0.52612   0.06342   0.00000  Uiso   1.00
O19    O     0.45805   0.48893   0.98193   0.00000  Uiso   1.00
O20    O     0.97844   0.50727   0.88859   0.00000  Uiso   1.00
Yb21   Yb    0.03045   0.49006   0.00540   0.00000  Uiso   1.00
C22    C     0.08370   0.47449   0.01525   0.00000  Uiso   1.00
Yb23   Yb    0.97362   0.51038   0.99769   0.00000  Uiso   1.00
O24    O     0.02536   0.49158   0.89466   0.00000  Uiso   1.00
C25    C     0.92138   0.43760   0.00182   0.00000  Uiso   1.00
C26    C     0.00184   0.49928   0.86038   0.00000  Uiso   1.00
O27    O     0.91006   0.49186   0.99149   0.00000  Uiso   1.00
C28    C     0.92049   0.52606   0.98802   0.00000  Uiso   1.00
O29    O     0.09294   0.54087   1.00524   0.00000  Uiso   1.00
O30    O     0.03967   0.54501  -0.00005   0.00000  Uiso   1.00
O31    O     0.02560   0.49313   0.11444   0.00000  Uiso   1.00
O32    O     0.95971   0.55194  -0.00830   0.00000  Uiso   1.00
O33    O     0.97873   0.50888   0.10841   0.00000  Uiso   1.00
C34    C     0.08265   0.56287   0.00135   0.00000  Uiso   1.00
C35    C     0.00220   0.50112   0.14266   0.00000  Uiso   1.00
O36    O     0.09407   0.50868   0.01173   0.00000  Uiso   1.00
O37    O     0.04450   0.44859   1.01147   0.00000  Uiso   1.00
O38    O     0.91112   0.45963  -0.00206   0.00000  Uiso   1.00
O39    O     0.96436   0.45541   1.00314   0.00000  Uiso   1.00
O40    O     0.48594   0.01556   0.10815   0.00000  Uiso   1.00
Yb41   Yb    0.51453   0.97591   0.00242   0.00000  Uiso   1.00
C42    C     0.53314   0.92837   1.00370   0.00000  Uiso   1.00
Yb43   Yb    0.48886   0.02499   0.99837   0.00000  Uiso   1.00
O44    O     0.50598   0.97485   0.11179   0.00000  Uiso   1.00
C45    C     0.56817   0.07471   0.01562   0.00000  Uiso   1.00
C46    C     0.49498  -0.00569   0.14126   0.00000  Uiso   1.00
O47    O     0.50770   0.08217   0.00337   0.00000  Uiso   1.00
C48    C     0.47032   0.07261  -0.00300   0.00000  Uiso   1.00
O49    O     0.46081   0.91860  -0.00965   0.00000  Uiso   1.00
O50    O     0.45258   0.96491   0.99029   0.00000  Uiso   1.00
O51    O     0.51748   0.98538   0.89267   0.00000  Uiso   1.00
O52    O     0.44235   0.03693   0.99024   0.00000  Uiso   1.00
O53    O     0.49742   0.02606   0.88903   0.00000  Uiso   1.00
C54    C     0.43521   0.92616  -0.01481   0.00000  Uiso   1.00
C55    C     0.50846   1.00664   0.85957   0.00000  Uiso   1.00
O56    O     0.49575   0.91877   0.99730   0.00000  Uiso   1.00
O57    O     0.56108   0.96405   0.01054   0.00000  Uiso   1.00
O58    O     0.54259   0.08229   1.01038   0.00000  Uiso   1.00
O59    O     0.55078   0.03595   0.01055   0.00000  Uiso   1.00
C60    C     0.50247   0.50143   0.35643   0.00000  Uiso   1.00
N61    N     0.51489   0.53357   0.31979   0.00000  Uiso   1.00
N62    N     0.51487   0.53366   0.25159   0.00000  Uiso   1.00
C63    C     0.50242   0.50160   0.21779   0.00000  Uiso   1.00
N64    N     0.48992   0.46949   0.25447   0.00000  Uiso   1.00
N65    N     0.48995   0.46940   0.32256   0.00000  Uiso   1.00
C66    C     0.50258   0.50119   0.43135   0.00000  Uiso   1.00
N67    N     0.49038   0.46902   0.46761   0.00000  Uiso   1.00
N68    N     0.49039   0.46868   0.53577   0.00000  Uiso   1.00
C69    C     0.50262   0.50054   0.57005   0.00000  Uiso   1.00
N70    N     0.51483   0.53272   0.53379   0.00000  Uiso   1.00
N71    N     0.51482   0.53305   0.46563   0.00000  Uiso   1.00
C72    C     0.50257   0.50027   0.64496   0.00000  Uiso   1.00
N73    N     0.51502   0.53229   0.67880   0.00000  Uiso   1.00
N74    N     0.51498   0.53220   0.74689   0.00000  Uiso   1.00
C75    C     0.50248   0.50010   0.78361   0.00000  Uiso   1.00
N76    N     0.49005   0.46804   0.74982   0.00000  Uiso   1.00
N77    N     0.49010   0.46814   0.68163   0.00000  Uiso   1.00
C78    C     1.00182   0.49941   0.64622   0.00000  Uiso   1.00
N79    N    -0.02227   0.50695   0.67894   0.00000  Uiso   1.00
N80    N    -0.02231   0.50681   0.74714   0.00000  Uiso   1.00
C81    C     1.00171   0.49908   0.78517   0.00000  Uiso   1.00
N82    N     1.02575   0.49145   0.75246   0.00000  Uiso   1.00
N83    N     1.02581   0.49161   0.68422   0.00000  Uiso   1.00
C84    C     1.00198   0.49980   0.57098   0.00000  Uiso   1.00
N85    N     1.02644   0.49274   0.53808   0.00000  Uiso   1.00
N86    N     1.02656   0.49312   0.46985   0.00000  Uiso   1.00
C87    C     1.00224   0.50059   0.43202   0.00000  Uiso   1.00
N88    N    -0.02219   0.50767   0.46493   0.00000  Uiso   1.00
N89    N    -0.02231   0.50729   0.53315   0.00000  Uiso   1.00
C90    C     1.00231   0.50090   0.35680   0.00000  Uiso   1.00
N91    N    -0.02173   0.50866   0.31887   0.00000  Uiso   1.00
N92    N    -0.02174   0.50883   0.25064   0.00000  Uiso   1.00
C93    C     0.00230   0.50123   0.21785   0.00000  Uiso   1.00
N94    N     1.02635   0.49350   0.25579   0.00000  Uiso   1.00
N95    N     1.02637   0.49335   0.32399   0.00000  Uiso   1.00
C96    C     0.49618  -0.00448   0.35572   0.00000  Uiso   1.00
N97    N     0.50578   0.97431   0.32327   0.00000  Uiso   1.00
N98    N     0.50468   0.97329   0.25499   0.00000  Uiso   1.00
C99    C     0.49383  -0.00665   0.21663   0.00000  Uiso   1.00
N100   N     0.48400   0.01434   0.24916   0.00000  Uiso   1.00
N101   N     0.48510   0.01537   0.31734   0.00000  Uiso   1.00
C102   C     0.49861  -0.00226   0.43105   0.00000  Uiso   1.00
N103   N     0.48966   0.01953   0.46304   0.00000  Uiso   1.00
N104   N     0.49248   0.02209   0.53114   0.00000  Uiso   1.00
C105   C     0.50445   1.00300   0.56984   0.00000  Uiso   1.00
N106   N     0.51335   0.98118   0.53785   0.00000  Uiso   1.00
N107   N     0.51054   0.97862   0.46976   0.00000  Uiso   1.00
C108   C     0.50705   1.00533   0.64515   0.00000  Uiso   1.00
N109   N     0.51823   0.98554   0.68349   0.00000  Uiso   1.00
N110   N     0.51945   0.98664   0.75167   0.00000  Uiso   1.00
C111   C     0.50965   1.00764   0.78423   0.00000  Uiso   1.00
N112   N     0.49876   0.02769   0.74591   0.00000  Uiso   1.00
N113   N     0.49754   0.02660   0.67764   0.00000  Uiso   1.00
C114   C     0.31802   0.45412   0.06260   0.00000  Uiso   1.00
N115   N     0.32832   0.44214   1.00897   0.00000  Uiso   1.00
N116   N     0.36753   0.45335   1.00221   0.00000  Uiso   1.00
C117   C     0.39766   0.47681   0.04895   0.00000  Uiso   1.00
N118   N     0.38695   0.48759   0.10357   0.00000  Uiso   1.00
N119   N     0.34794   0.47643   0.11032   0.00000  Uiso   1.00
C120   C     0.27787   0.44922   0.06367   0.00000  Uiso   1.00
N121   N     0.27395   0.47119   0.10585   0.00000  Uiso   1.00
N122   N     0.24060   0.47184   0.10111   0.00000  Uiso   1.00
C123   C     0.20958   0.45028   0.05441   0.00000  Uiso   1.00
N124   N     0.21278   0.42740   1.01324   0.00000  Uiso   1.00
N125   N     0.24652   0.42708   1.01748   0.00000  Uiso   1.00
C126   C     0.17568   0.45510   0.04488   0.00000  Uiso   1.00
N127   N     0.13806   0.42773   1.01627   0.00000  Uiso   1.00
N128   N     0.10820   0.43339   1.00723   0.00000  Uiso   1.00
C129   C     0.11533   0.46687   0.02538   0.00000  Uiso   1.00
N130   N     0.15295   0.49412   0.05349   0.00000  Uiso   1.00
N131   N     0.18243   0.48826   0.06346   0.00000  Uiso   1.00
C132   C     0.83139   0.32090   0.02661   0.00000  Uiso   1.00
N133   N     0.82369   0.34662   0.04213   0.00000  Uiso   1.00
N134   N     0.85241   0.38364   0.03313   0.00000  Uiso   1.00
C135   C     0.89023   0.39652   0.00901   0.00000  Uiso   1.00
N136   N     0.89830   0.37093   0.99360   0.00000  Uiso   1.00
N137   N     0.86916   0.33363   1.00166   0.00000  Uiso   1.00
C138   C     0.79836   0.28028   0.03667   0.00000  Uiso   1.00
N139   N     0.79535   0.25286   0.99888   0.00000  Uiso   1.00
N140   N     0.76190   0.21678   1.00314   0.00000  Uiso   1.00
C141   C     0.73062   0.20696   1.04581   0.00000  Uiso   1.00
N142   N     0.73449   0.23428   0.08475   0.00000  Uiso   1.00
N143   N     0.76754   0.27014   0.08013   0.00000  Uiso   1.00
C144   C     0.69046   0.16929   1.04442   0.00000  Uiso   1.00
N145   N     0.65890   0.16412   0.08044   0.00000  Uiso   1.00
N146   N     0.62049   0.13280   0.07328   0.00000  Uiso   1.00
C147   C     0.61198   0.10500   1.03049   0.00000  Uiso   1.00
N148   N     0.64362   0.10942   0.99541   0.00000  Uiso   1.00
N149   N     0.68229   0.14118   1.00210   0.00000  Uiso   1.00
C150   C     0.82877   0.54575   0.95786   0.00000  Uiso   1.00
N151   N     0.82191   0.51250   0.93951   0.00000  Uiso   1.00
N152   N     0.85129   0.50653   0.94975   0.00000  Uiso   1.00
C153   C     0.88891   0.53375   0.97794   0.00000  Uiso   1.00
N154   N     0.89613   0.56727  -0.00403   0.00000  Uiso   1.00
N155   N     0.86636   0.57304  -0.01335   0.00000  Uiso   1.00
C156   C     0.79498   0.55067   0.94810   0.00000  Uiso   1.00
N157   N     0.79195   0.57378  -0.01109   0.00000  Uiso   1.00
N158   N     0.75829   0.57422  -0.01546   0.00000  Uiso   1.00
C159   C     0.72686   0.55198   0.93857   0.00000  Uiso   1.00
N160   N     0.73057   0.52974   0.89678   0.00000  Uiso   1.00
N161   N     0.76384   0.52897   0.90166   0.00000  Uiso   1.00
C162   C     0.68680   0.54727   0.93947   0.00000  Uiso   1.00
N163   N     0.65693   0.52508   0.89164   0.00000  Uiso   1.00
N164   N     0.61797   0.51409   0.89819   0.00000  Uiso   1.00
C165   C     0.60728   0.52493   0.95278   0.00000  Uiso   1.00
N166   N     0.63740   0.54835  -0.00045   0.00000  Uiso   1.00
N167   N     0.67657   0.55941  -0.00705   0.00000  Uiso   1.00
C168   C     0.31295   0.83140  -0.04290   0.00000  Uiso   1.00
N169   N     0.34436   0.83679   0.92028   0.00000  Uiso   1.00
N170   N     0.38276   0.86820   0.92717   0.00000  Uiso   1.00
C171   C     0.39137   0.89583  -0.02953   0.00000  Uiso   1.00
N172   N     0.35986   0.89120   0.00630   0.00000  Uiso   1.00
N173   N     0.32121   0.85937  -0.00015   0.00000  Uiso   1.00
C174   C     0.27291   0.79360  -0.04384   0.00000  Uiso   1.00
N175   N     0.24165   0.78382  -0.00117   0.00000  Uiso   1.00
N176   N     0.20828   0.74769   0.00343   0.00000  Uiso   1.00
C177   C     0.20538   0.72022   0.96603   0.00000  Uiso   1.00
N178   N     0.23620   0.73031   0.92262   0.00000  Uiso   1.00
N179   N     0.26916   0.76622   0.91765   0.00000  Uiso   1.00
C180   C     0.17245   0.67959   0.97639   0.00000  Uiso   1.00
N181   N     0.18027   0.65392   0.96119   0.00000  Uiso   1.00
N182   N     0.15162   0.61689   0.97031   0.00000  Uiso   1.00
C183   C     0.11375   0.60396   0.99422   0.00000  Uiso   1.00
N184   N     0.10555   0.62949   0.00935   0.00000  Uiso   1.00
N185   N     0.13462   0.66681   0.00117   0.00000  Uiso   1.00
C186   C     0.55102   0.84235   0.99354   0.00000  Uiso   1.00
N187   N     0.51313   0.83555   0.98192   0.00000  Uiso   1.00
N188   N     0.50818   0.86331   0.98585   0.00000  Uiso   1.00
C189   C     0.54091   0.89913   1.00125   0.00000  Uiso   1.00
N190   N     0.57915   0.90634   0.01303   0.00000  Uiso   1.00
N191   N     0.58411   0.87826   0.00945   0.00000  Uiso   1.00
C192   C     0.55436   0.81037  -0.01171   0.00000  Uiso   1.00
N193   N     0.58890   0.81234   0.00963   0.00000  Uiso   1.00
N194   N     0.58942   0.78166   0.00693   0.00000  Uiso   1.00
C195   C     0.55548   0.74824  -0.01739   0.00000  Uiso   1.00
N196   N     0.52141   0.74669   0.96081   0.00000  Uiso   1.00
N197   N     0.52086   0.77707   0.96369   0.00000  Uiso   1.00
C198   C     0.55340   0.71314  -0.01822   0.00000  Uiso   1.00
N199   N     0.51780   0.68110   0.95808   0.00000  Uiso   1.00
N200   N     0.51344   0.64819   0.95956   0.00000  Uiso   1.00
C201   C     0.54453   0.64590  -0.01537   0.00000  Uiso   1.00
N202   N     0.58057   0.67797   0.00797   0.00000  Uiso   1.00
N203   N     0.58493   0.71114   0.00663   0.00000  Uiso   1.00
C204   C     0.45094   0.28836   0.01922   0.00000  Uiso   1.00
N205   N     0.41938   0.29040   0.99476   0.00000  Uiso   1.00
N206   N     0.42382   0.32361   0.99350   0.00000  Uiso   1.00
C207   C     0.45996   0.35568   0.01661   0.00000  Uiso   1.00
N208   N     0.49108   0.35333   0.04127   0.00000  Uiso   1.00
N209   N     0.48666   0.32040   0.04261   0.00000  Uiso   1.00
C210   C     0.44878   0.25322   0.01822   0.00000  Uiso   1.00
N211   N     0.48289   0.25472   0.03954   0.00000  Uiso   1.00
N212   N     0.48332   0.22428   0.03659   0.00000  Uiso   1.00
C213   C     0.44964   0.19096   0.01243   0.00000  Uiso   1.00
N214   N     0.41506   0.18904   0.99156   0.00000  Uiso   1.00
N215   N     0.41467   0.21979   0.99430   0.00000  Uiso   1.00
C216   C     0.45283   0.15888   0.00722   0.00000  Uiso   1.00
N217   N     0.41961   0.12297   0.99166   0.00000  Uiso   1.00
N218   N     0.42442   0.09480   0.98805   0.00000  Uiso   1.00
C219   C     0.46265   0.10191  -0.00054   0.00000  Uiso   1.00
N220   N     0.49549   0.13772   0.01456   0.00000  Uiso   1.00
N221   N     0.49069   0.16558   0.01852   0.00000  Uiso   1.00
loop_
_geom_bond_atom_site_label_1
_geom_bond_atom_site_label_2
_geom_bond_distance
_geom_bond_site_symmetry_2
_ccdc_geom_bond_type
O0     C6      1.306   .     A
O0     Yb3     2.163   1_556 S
Yb1    O4      2.223   .     S
Yb1    O9      2.165   .     S
Yb1    O17     2.159   .     S
Yb1    O19     2.138   .     S
Yb1    Yb3     2.978   1_556 S
Yb1    O10     2.144   1_556 S
Yb1    O11     2.164   1_556 S
Yb1    O16     2.106   1_556 S
C2     O16     1.272   .     A
C2     C207    1.465   .     S
C2     O17     1.281   1_554 A
Yb3    O10     2.139   .     S
Yb3    O12     2.160   .     S
Yb3    O13     2.224   .     S
Yb3    O18     2.163   .     S
Yb3    O0      2.163   1_554 S
Yb3    Yb1     2.978   1_554 S
Yb3    O7      2.105   1_554 S
Yb3    O19     2.143   1_554 S
O4     C6      1.318   .     A
C5     O18     1.215   .     D
C5     C117    1.464   .     S
C5     O19     1.382   1_554 S
C6     C75     1.463   .     S
O7     C8      1.271   .     A
O7     Yb3     2.105   1_556 S
C8     O12     1.281   1_556 A
C8     C201    1.464   1_556 S
O9     C14     1.214   .     D
O10    Yb1     2.144   1_554 S
O10    C14     1.382   1_554 S
O11    C15     1.306   .     A
O11    Yb1     2.164   1_554 S
O12    C8      1.281   1_554 A
O13    C15     1.318   .     A
C14    C165    1.464   .     S
C14    O10     1.382   1_556 S
C15    C63     1.462   .     S
O16    Yb1     2.106   1_554 S
O17    C2      1.281   1_556 A
O19    Yb3     2.143   1_556 S
O19    C5      1.382   1_556 S
O20    Yb23    2.164   .     S
O20    C26     1.304   1_655 A
Yb21   O30     2.179   .     S
Yb21   O31     2.163   .     S
Yb21   O36     2.142   .     S
Yb21   Yb23    2.835   1_454 S
Yb21   O24     2.166   1_554 S
Yb21   O29     2.147   1_554 S
Yb21   O37     2.155   1_554 S
Yb21   O39     2.121   1_454 S
C22    O36     1.282   .     A
C22    C129    1.465   .     S
C22    O37     1.278   1_554 A
Yb23   O27     2.141   .     S
Yb23   O39     2.179   .     S
Yb23   Yb21    2.835   1_656 S
Yb23   O30     2.119   1_656 S
Yb23   O32     2.155   1_556 S
Yb23   O33     2.166   1_556 S
Yb23   O38     2.146   1_556 S
O24    C26     1.305   .     A
O24    Yb21    2.166   1_556 S
C25    O38     1.228   .     D
C25    C135    1.463   .     S
C25    O39     1.395   1_554 S
C26    O20     1.304   1_455 A
C26    C81     1.469   1_455 S
O27    C28     1.282   .     A
C28    C153    1.465   .     S
C28    O32     1.278   1_556 A
O29    Yb21    2.147   1_556 S
O29    C34     1.228   1_556 D
O30    C34     1.395   .     S
O30    Yb23    2.119   1_454 S
O31    C35     1.304   .     A
O32    Yb23    2.155   1_554 S
O32    C28     1.278   1_554 A
O33    Yb23    2.166   1_554 S
O33    C35     1.304   1_655 A
C34    O29     1.228   1_554 D
C34    C183    1.463   1_554 S
C35    C93     1.469   .     S
C35    O33     1.304   1_455 A
O37    Yb21    2.155   1_556 S
O37    C22     1.278   1_556 A
O38    Yb23    2.146   1_554 S
O39    Yb21    2.121   1_656 S
O39    C25     1.395   1_556 S
O40    C46     1.303   .     A
O40    Yb43    2.164   1_554 S
Yb41   O44     2.172   .     S
Yb41   O49     2.140   .     S
Yb41   O57     2.169   .     S
Yb41   Yb43    2.824   1_564 S
Yb41   O50     2.203   1_554 S
Yb41   O51     2.163   1_554 S
Yb41   O56     2.128   1_554 S
Yb41   O59     2.120   1_565 S
C42    O56     1.279   .     A
C42    C189    1.462   .     S
C42    O57     1.279   1_556 A
Yb43   O52     2.170   .     S
Yb43   O53     2.172   .     S
Yb43   O58     2.140   .     S
Yb43   O40     2.164   1_556 S
Yb43   Yb41    2.824   1_546 S
Yb43   O47     2.129   1_556 S
Yb43   O50     2.121   1_545 S
Yb43   O59     2.202   1_556 S
O44    C46     1.305   1_565 A
C45    O59     1.397   .     S
C45    O58     1.226   1_554 D
C45    C147    1.463   1_554 S
C46    C99     1.473   .     S
C46    O44     1.305   1_545 A
O47    C48     1.279   .     A
O47    Yb43    2.129   1_554 S
C48    C219    1.463   .     S
C48    O52     1.279   1_554 A
O49    C54     1.226   .     D
O50    Yb41    2.203   1_556 S
O50    Yb43    2.121   1_565 S
O50    C54     1.398   1_556 S
O51    C55     1.303   .     A
O51    Yb41    2.163   1_556 S
O52    C48     1.279   1_556 A
O53    C55     1.305   1_545 A
C54    C171    1.463   .     S
C54    O50     1.398   1_554 S
C55    C111    1.473   .     S
C55    O53     1.305   1_565 A
O56    Yb41    2.128   1_556 S
O57    C42     1.279   1_554 A
O58    C45     1.226   1_556 D
O59    Yb41    2.120   1_545 S
O59    Yb43    2.202   1_554 S
C60    N61     1.358   .     A
C60    N65     1.356   .     A
C60    C66     1.463   .     S
N61    N62     1.332   .     A
N62    C63     1.357   .     A
C63    N64     1.357   .     A
N64    N65     1.330   .     A
C66    N67     1.357   .     A
C66    N71     1.357   .     A
N67    N68     1.331   .     A
N68    C69     1.357   .     A
C69    N70     1.357   .     A
C69    C72     1.463   .     S
N70    N71     1.331   .     A
C72    N73     1.356   .     A
C72    N77     1.358   .     A
N73    N74     1.330   .     A
N74    C75     1.357   .     A
C75    N76     1.357   .     A
N76    N77     1.332   .     A
C78    N83     1.358   .     A
C78    C84     1.469   .     S
C78    N79     1.358   1_655 A
N79    N80     1.332   .     A
N79    C78     1.358   1_455 A
N80    C81     1.358   1_455 A
C81    N82     1.358   .     A
C81    N80     1.358   1_655 A
C81    C26     1.469   1_655 S
N82    N83     1.333   .     A
C84    N85     1.358   .     A
C84    N89     1.358   1_655 A
N85    N86     1.333   .     A
N86    C87     1.358   .     A
C87    C90     1.469   .     S
C87    N88     1.358   1_655 A
N88    N89     1.332   .     A
N88    C87     1.358   1_455 A
N89    C84     1.358   1_455 A
C90    N95     1.357   .     A
C90    N91     1.358   1_655 A
N91    N92     1.333   .     A
N91    C90     1.358   1_455 A
N92    C93     1.358   .     A
C93    N94     1.358   1_455 A
N94    N95     1.332   .     A
N94    C93     1.358   1_655 A
C96    N101    1.357   .     A
C96    C102    1.474   .     S
C96    N97     1.359   1_545 A
N97    N98     1.334   .     A
N97    C96     1.359   1_565 A
N98    C99     1.359   1_565 A
C99    N100    1.358   .     A
C99    N98     1.359   1_545 A
N100   N101    1.332   .     A
C102   N103    1.359   .     A
C102   N107    1.358   1_545 A
N103   N104    1.333   .     A
N104   C105    1.358   1_545 A
C105   N106    1.359   .     A
C105   C108    1.473   .     S
C105   N104    1.358   1_565 A
N106   N107    1.333   .     A
N107   C102    1.358   1_565 A
C108   N109    1.357   .     A
C108   N113    1.359   1_565 A
N109   N110    1.332   .     A
N110   C111    1.358   .     A
C111   N112    1.359   1_565 A
N112   N113    1.334   .     A
N112   C111    1.359   1_545 A
N113   C108    1.359   1_545 A
C114   N119    1.356   .     A
C114   C120    1.470   .     S
C114   N115    1.360   1_554 A
N115   N116    1.336   .     A
N115   C114    1.360   1_556 A
N116   C117    1.359   1_556 A
C117   N118    1.355   .     A
C117   N116    1.359   1_554 A
N118   N119    1.329   .     A
C120   N121    1.356   .     A
C120   N125    1.360   1_554 A
N121   N122    1.329   .     A
N122   C123    1.355   .     A
C123   C126    1.469   .     S
C123   N124    1.360   1_554 A
N124   N125    1.336   .     A
N124   C123    1.360   1_556 A
N125   C120    1.360   1_556 A
C126   N131    1.356   .     A
C126   N127    1.360   1_554 A
N127   N128    1.337   .     A
N127   C126    1.360   1_556 A
N128   C129    1.359   1_556 A
C129   N130    1.355   .     A
C129   N128    1.359   1_554 A
N130   N131    1.329   .     A
C132   N133    1.356   .     A
C132   C138    1.468   .     S
C132   N137    1.360   1_554 A
N133   N134    1.328   .     A
N134   C135    1.354   .     A
C135   N136    1.360   1_554 A
N136   N137    1.337   .     A
N136   C135    1.360   1_556 A
N137   C132    1.360   1_556 A
C138   N143    1.354   .     A
C138   N139    1.361   1_554 A
N139   N140    1.337   .     A
N139   C138    1.361   1_556 A
N140   C141    1.361   .     A
C141   C144    1.471   .     S
C141   N142    1.356   1_556 A
N142   N143    1.327   .     A
N142   C141    1.356   1_554 A
C144   N149    1.362   .     A
C144   N145    1.355   1_556 A
N145   N146    1.326   .     A
N145   C144    1.355   1_554 A
N146   C147    1.354   1_554 A
C147   N148    1.360   .     A
C147   N146    1.354   1_556 A
C147   C45     1.463   1_556 S
N148   N149    1.338   .     A
C150   N151    1.356   .     A
C150   C156    1.468   .     S
C150   N155    1.360   1_556 A
N151   N152    1.329   .     A
N152   C153    1.355   .     A
C153   N154    1.359   1_556 A
N154   N155    1.336   .     A
N154   C153    1.359   1_554 A
N155   C150    1.360   1_554 A
C156   N161    1.355   .     A
C156   N157    1.360   1_556 A
N157   N158    1.336   .     A
N157   C156    1.360   1_554 A
N158   C159    1.359   1_554 A
C159   N160    1.357   .     A
C159   C162    1.470   .     S
C159   N158    1.359   1_556 A
N160   N161    1.329   .     A
C162   N163    1.355   .     A
C162   N167    1.361   1_556 A
N163   N164    1.329   .     A
N164   C165    1.356   .     A
C165   N166    1.358   1_556 A
N166   N167    1.336   .     A
N166   C165    1.358   1_554 A
N167   C162    1.361   1_554 A
C168   N173    1.362   .     A
C168   C174    1.471   .     S
C168   N169    1.355   1_554 A
N169   N170    1.327   .     A
N169   C168    1.355   1_556 A
N170   C171    1.354   1_556 A
C171   N172    1.360   .     A
C171   N170    1.354   1_554 A
N172   N173    1.339   .     A
C174   N175    1.361   .     A
C174   N179    1.355   1_554 A
N175   N176    1.338   .     A
N176   C177    1.361   1_554 A
C177   N178    1.354   .     A
C177   C180    1.469   .     S
C177   N176    1.361   1_556 A
N178   N179    1.328   .     A
N179   C174    1.355   1_556 A
C180   N181    1.356   .     A
C180   N185    1.360   1_556 A
N181   N182    1.328   .     A
N182   C183    1.354   .     A
C183   N184    1.360   1_556 A
C183   C34     1.463   1_556 S
N184   N185    1.337   .     A
N184   C183    1.360   1_554 A
N185   C180    1.360   1_554 A
C186   N187    1.353   .     A
C186   N191    1.361   1_556 A
C186   C192    1.467   1_556 S
N187   N188    1.325   .     A
N188   C189    1.353   .     A
C189   N190    1.360   1_556 A
N190   N191    1.338   .     A
N190   C189    1.360   1_554 A
N191   C186    1.361   1_554 A
C192   N193    1.360   .     A
C192   C186    1.467   1_554 S
C192   N197    1.354   1_554 A
N193   N194    1.338   .     A
N194   C195    1.361   .     A
C195   C198    1.469   .     S
C195   N196    1.354   1_554 A
N196   N197    1.326   .     A
N196   C195    1.354   1_556 A
N197   C192    1.354   1_556 A
C198   N203    1.361   .     A
C198   N199    1.354   1_554 A
N199   N200    1.327   .     A
N199   C198    1.354   1_556 A
N200   C201    1.354   1_556 A
C201   N202    1.360   .     A
C201   N200    1.354   1_554 A
C201   C8      1.464   1_554 S
N202   N203    1.338   .     A
C204   N209    1.354   .     A
C204   C210    1.469   .     S
C204   N205    1.361   1_554 A
N205   N206    1.338   .     A
N205   C204    1.361   1_556 A
N206   C207    1.360   1_556 A
C207   N208    1.354   .     A
C207   N206    1.360   1_554 A
N208   N209    1.327   .     A
C210   N211    1.354   .     A
C210   N215    1.361   1_554 A
N211   N212    1.326   .     A
N212   C213    1.354   .     A
C213   C216    1.468   .     S
C213   N214    1.361   1_554 A
N214   N215    1.338   .     A
N214   C213    1.361   1_556 A
N215   C210    1.361   1_556 A
C216   N221    1.354   .     A
C216   N217    1.361   1_554 A
N217   N218    1.339   .     A
N217   C216    1.361   1_556 A
N218   C219    1.361   1_556 A
C219   N220    1.353   .     A
C219   N218    1.361   1_554 A
N220   N221    1.325   .     A
