data_kag+N123+E191
_audit_creation_date              2025-01-21
_audit_creation_method            'Materials Studio'
_symmetry_space_group_name_H-M    'P1'
_symmetry_Int_Tables_number       1
_symmetry_cell_setting            triclinic
loop_
_symmetry_equiv_pos_as_xyz
  x,y,z
_cell_length_a                    39.4160
_cell_length_b                    37.6808
_cell_length_c                    17.3407
_cell_angle_alpha                 90.0270
_cell_angle_beta                  90.2273
_cell_angle_gamma                 124.5549
loop_
_atom_site_label
_atom_site_type_symbol
_atom_site_fract_x
_atom_site_fract_y
_atom_site_fract_z
_atom_site_U_iso_or_equiv
_atom_site_adp_type
_atom_site_occupancy
Ce0    Ce    0.54808   0.51786   0.00195   0.00000  Uiso   1.00
Ce1    Ce    0.46102   0.48175   1.00363   0.00000  Uiso   1.00
C2     C     0.47375   0.48663   0.15665   0.00000  Uiso   1.00
C3     C     0.62870   0.54811  -0.00331   0.00000  Uiso   1.00
C4     C     0.52311   0.58613   1.00211   0.00000  Uiso   1.00
C5     C     0.53519   0.51260   0.84905   0.00000  Uiso   1.00
C6     C     0.38062   0.45207   1.00904   0.00000  Uiso   1.00
C7     C     0.48594   0.41352   0.00181   0.00000  Uiso   1.00
O8     O     0.43985   0.47297   0.12833   0.00000  Uiso   1.00
O9     O     0.50520   0.49982   0.10297   0.00000  Uiso   1.00
O10    O     0.60948   0.54172   0.05990   0.00000  Uiso   1.00
O11    O     0.60711   0.54065   0.93571   0.00000  Uiso   1.00
O12    O     0.55391   0.58245   1.00082   0.00000  Uiso   1.00
O13    O     0.48499   0.55339   1.00427   0.00000  Uiso   1.00
O14    O     0.56917   0.52658   0.87728   0.00000  Uiso   1.00
O15    O     0.50380   0.49952   0.90274   0.00000  Uiso   1.00
O16    O     0.39972   0.45814   0.94578   0.00000  Uiso   1.00
O17    O     0.40216   0.45941   0.07002   0.00000  Uiso   1.00
O18    O     0.45514   0.41718   0.00449   0.00000  Uiso   1.00
O19    O     0.52411   0.44620  -0.00005   0.00000  Uiso   1.00
Ce20   Ce    0.02905   0.48267  -0.00109   0.00000  Uiso   1.00
Ce21   Ce    0.98266   0.52044  -0.00311   0.00000  Uiso   1.00
C22    C     0.98860   0.51422   0.84379   0.00000  Uiso   1.00
C23    C     0.07539   0.45080   1.00539   0.00000  Uiso   1.00
C24    C     0.93014   0.41589  -0.00292   0.00000  Uiso   1.00
C25    C     0.02320   0.48884   0.15187   0.00000  Uiso   1.00
C26    C     0.93563   0.55156  -0.00792   0.00000  Uiso   1.00
C27    C     0.08175   0.58731   0.99827   0.00000  Uiso   1.00
O28    O     0.97051   0.52895   0.87187   0.00000  Uiso   1.00
O29    O     0.00576   0.50097   0.89774   0.00000  Uiso   1.00
O30    O     0.06339   0.45753   0.94185   0.00000  Uiso   1.00
O31    O     0.06232   0.45873   0.06610   0.00000  Uiso   1.00
O32    O     0.96452   0.41877  -0.00043   0.00000  Uiso   1.00
O33    O     0.92823   0.44910  -0.00427   0.00000  Uiso   1.00
O34    O     0.04110   0.47395   0.12362   0.00000  Uiso   1.00
O35    O     0.00602   0.50221   0.09813   0.00000  Uiso   1.00
O36    O     0.94827   0.54517   0.05508   0.00000  Uiso   1.00
O37    O     0.94861   0.54392   0.93084   0.00000  Uiso   1.00
O38    O     0.04736   0.58448   0.99649   0.00000  Uiso   1.00
O39    O     0.08357   0.55400   0.99974   0.00000  Uiso   1.00
Ce40   Ce    0.52154   0.97376   1.00193   0.00000  Uiso   1.00
Ce41   Ce    0.49199   0.02828   0.00314   0.00000  Uiso   1.00
C42    C     0.49622   0.02066   0.15633   0.00000  Uiso   1.00
C43    C     0.54604   0.91995   0.99697   0.00000  Uiso   1.00
C44    C     0.59134   0.07615   1.00159   0.00000  Uiso   1.00
C45    C     0.51681   0.98074   0.84872   0.00000  Uiso   1.00
C46    C     0.46784   0.08238   0.00784   0.00000  Uiso   1.00
C47    C     0.42219   0.92586   0.00335   0.00000  Uiso   1.00
O48    O     0.48503   0.04226   0.12792   0.00000  Uiso   1.00
O49    O     0.50697   0.00086   0.10269   0.00000  Uiso   1.00
O50    O     0.54112   0.93396   0.06012   0.00000  Uiso   1.00
O51    O     0.53995   0.93474   0.93583   0.00000  Uiso   1.00
O52    O     0.58535   0.03856   1.00072   0.00000  Uiso   1.00
O53    O     0.56159   0.08144   0.00337   0.00000  Uiso   1.00
O54    O     0.52837   0.95954   0.87749   0.00000  Uiso   1.00
O55    O     0.50624   1.00087   0.90204   0.00000  Uiso   1.00
O56    O     0.47259   0.06811   0.94481   0.00000  Uiso   1.00
O57    O     0.47394   0.06771   0.06910   0.00000  Uiso   1.00
O58    O     0.42817   0.96345   0.00449   0.00000  Uiso   1.00
O59    O     0.45195   0.92056   1.00149   0.00000  Uiso   1.00
Ni60   Ni    0.50439   0.49930   0.50291   0.00000  Uiso   1.00
C61    C     0.48087   0.48885   0.24055   0.00000  Uiso   1.00
C62    C     0.44854   0.47528   0.29260   0.00000  Uiso   1.00
C63    C     0.45645   0.47858   0.37176   0.00000  Uiso   1.00
C64    C     0.52685   0.50737   0.34913   0.00000  Uiso   1.00
C65    C     0.52033   0.50464   0.26948   0.00000  Uiso   1.00
H66    H     0.46275   0.48339   0.77475   0.00000  Uiso   1.00
H67    H     0.59114   0.53618   0.73348   0.00000  Uiso   1.00
H68    H     0.57698   0.53028   0.59352   0.00000  Uiso   1.00
H69    H     0.45145   0.47860   0.63385   0.00000  Uiso   1.00
N70    N     0.51366   0.50394   0.60759   0.00000  Uiso   1.00
N71    N     0.49510   0.49464   0.39823   0.00000  Uiso   1.00
H72    H     0.41757   0.46240   0.27243   0.00000  Uiso   1.00
H73    H     0.43182   0.46848   0.41236   0.00000  Uiso   1.00
H74    H     0.55725   0.51977   0.37188   0.00000  Uiso   1.00
H75    H     0.54591   0.51490   0.23104   0.00000  Uiso   1.00
C76    C     0.52789   0.50986   0.76523   0.00000  Uiso   1.00
C77    C     0.56019   0.52332   0.71323   0.00000  Uiso   1.00
C78    C     0.55231   0.52006   0.63409   0.00000  Uiso   1.00
C79    C     0.48186   0.49106   0.65665   0.00000  Uiso   1.00
C80    C     0.48836   0.49378   0.73631   0.00000  Uiso   1.00
Ni81   Ni    0.00704   0.50203   0.49800   0.00000  Uiso   1.00
C82    C    -0.00785   0.51066   0.75986   0.00000  Uiso   1.00
C83    C     0.01428   0.49458   0.73173   0.00000  Uiso   1.00
C84    C     0.01810   0.49193   0.65227   0.00000  Uiso   1.00
C85    C     0.97838   0.52000   0.62794   0.00000  Uiso   1.00
C86    C     0.97386   0.52331   0.70703   0.00000  Uiso   1.00
H87    H     0.05574   0.46716   0.26762   0.00000  Uiso   1.00
H88    H     0.98331   0.51861   0.22647   0.00000  Uiso   1.00
H89    H     0.97825   0.52400   0.36722   0.00000  Uiso   1.00
H90    H     0.04904   0.47367   0.40769   0.00000  Uiso   1.00
N91    N     0.01343   0.49921   0.39357   0.00000  Uiso   1.00
N92    N     0.00046   0.50481   0.60237   0.00000  Uiso   1.00
H93    H     0.02877   0.48445   0.77068   0.00000  Uiso   1.00
H94    H     0.03529   0.47975   0.63022   0.00000  Uiso   1.00
H95    H     0.96448   0.52976   0.58678   0.00000  Uiso   1.00
H96    H     0.95642   0.53574   0.72653   0.00000  Uiso   1.00
C97    C     1.02015   0.49260   0.23582   0.00000  Uiso   1.00
C98    C     0.99830   0.50880   0.26479   0.00000  Uiso   1.00
C99    C     0.99535   0.51190   0.34438   0.00000  Uiso   1.00
C100   C     0.03504   0.48363   0.36718   0.00000  Uiso   1.00
C101   C     0.03878   0.47998   0.28790   0.00000  Uiso   1.00
Ni102  Ni    0.50619  -0.00057   0.50212   0.00000  Uiso   1.00
C103   C     0.49809   0.01556   0.24028   0.00000  Uiso   1.00
C104   C     0.51085  -0.00999   0.26852   0.00000  Uiso   1.00
C105   C     0.51299  -0.01443   0.34794   0.00000  Uiso   1.00
C106   C     0.49018   1.03077   0.37214   0.00000  Uiso   1.00
C107   C     0.48758   1.03610   0.29300   0.00000  Uiso   1.00
H108   H     0.53435  -0.05636   0.73346   0.00000  Uiso   1.00
H109   H     0.49304   1.02663   0.77325   0.00000  Uiso   1.00
H110   H     0.48932   1.03314   0.63238   0.00000  Uiso   1.00
H111   H     0.52966  -0.04802   0.59314   0.00000  Uiso   1.00
N112   N     0.50954   0.99319   0.60662   0.00000  Uiso   1.00
N113   N     0.50271   0.00582   0.39779   0.00000  Uiso   1.00
H114   H     0.51913  -0.02638   0.22963   0.00000  Uiso   1.00
H115   H     0.52303  -0.03390   0.37004   0.00000  Uiso   1.00
H116   H     0.48238   1.04667   0.41325   0.00000  Uiso   1.00
H117   H     0.47754   1.05604   0.27337   0.00000  Uiso   1.00
C118   C     0.51431   0.98480   0.76458   0.00000  Uiso   1.00
C119   C     0.50145   1.01004   0.73518   0.00000  Uiso   1.00
C120   C     0.49924   1.01376   0.65551   0.00000  Uiso   1.00
C121   C     0.52189  -0.03175   0.63338   0.00000  Uiso   1.00
C122   C     0.52456  -0.03636   0.71281   0.00000  Uiso   1.00
Ni123  Ni    0.21379   0.42534   0.01404   0.00000  Uiso   1.00
C124   C     0.33784   0.43985   0.01137   0.00000  Uiso   1.00
C125   C     0.31967   0.43850   0.08174   0.00000  Uiso   1.00
C126   C     0.28108   0.43205   0.08173   0.00000  Uiso   1.00
C127   C     0.27741   0.42637   0.94535   0.00000  Uiso   1.00
C128   C     0.31592   0.43282   0.94265   0.00000  Uiso   1.00
H129   H     0.10887   0.43920   0.13330   0.00000  Uiso   1.00
H130   H     0.10838   0.43414   0.88425   0.00000  Uiso   1.00
H131   H     0.16447   0.42340   0.89109   0.00000  Uiso   1.00
H132   H     0.16516   0.42848   0.13448   0.00000  Uiso   1.00
N133   N     0.16706   0.42517   1.01290   0.00000  Uiso   1.00
N134   N     0.26120   0.42681   0.01406   0.00000  Uiso   1.00
H135   H     0.33569   0.44388   0.13591   0.00000  Uiso   1.00
H136   H     0.26755   0.43263   0.13546   0.00000  Uiso   1.00
H137   H     0.26095   0.42243   0.89246   0.00000  Uiso   1.00
H138   H     0.32894   0.43365   0.88727   0.00000  Uiso   1.00
C139   C     0.10420   0.43764   1.00843   0.00000  Uiso   1.00
C140   C     0.11953   0.43201   0.94003   0.00000  Uiso   1.00
C141   C     0.15122   0.42585   0.94364   0.00000  Uiso   1.00
C142   C     0.15164   0.42871   0.08025   0.00000  Uiso   1.00
C143   C     0.11984   0.43485   0.07934   0.00000  Uiso   1.00
Ni144  Ni    0.76540   0.24047   0.99543   0.00000  Uiso   1.00
C145   C     0.89075   0.37268  -0.00460   0.00000  Uiso   1.00
C146   C     0.88927   0.33506   0.00952   0.00000  Uiso   1.00
C147   C     0.85123   0.29494   0.00878   0.00000  Uiso   1.00
C148   C     0.81663   0.32823   0.97988   0.00000  Uiso   1.00
C149   C     0.85373   0.36878   0.98019   0.00000  Uiso   1.00
H150   H     0.66449   0.08188   0.00387   0.00000  Uiso   1.00
H151   H     0.61588   0.15998   0.99713   0.00000  Uiso   1.00
H152   H     0.68673   0.22457   0.99422   0.00000  Uiso   1.00
H153   H     0.73484   0.14897   0.00090   0.00000  Uiso   1.00
N154   N     0.71380   0.18970   0.99679   0.00000  Uiso   1.00
N155   N     0.81601   0.29243  -0.00595   0.00000  Uiso   1.00
H156   H     0.91704   0.33664   0.02190   0.00000  Uiso   1.00
H157   H     0.84972   0.26588   0.02060   0.00000  Uiso   1.00
H158   H     0.78803   0.32518   0.96890   0.00000  Uiso   1.00
H159   H     0.85332   0.39679   0.96864   0.00000  Uiso   1.00
C160   C     0.63417   0.11533   1.00015   0.00000  Uiso   1.00
C161   C     0.64116   0.15624   0.99761   0.00000  Uiso   1.00
C162   C     0.68129   0.19302   0.99584   0.00000  Uiso   1.00
C163   C     0.70834   0.15066  -0.00045   0.00000  Uiso   1.00
C164   C     0.66844   0.11274   0.00125   0.00000  Uiso   1.00
Ni165  Ni    0.79624   0.57608   0.98970   0.00000  Uiso   1.00
C166   C     0.90628   0.56408  -0.00956   0.00000  Uiso   1.00
C167   C     0.89166   0.56995   0.05963   0.00000  Uiso   1.00
C168   C     0.85979   0.57591   0.05762   0.00000  Uiso   1.00
C169   C     0.85756   0.57205   0.92109   0.00000  Uiso   1.00
C170   C     0.88955   0.56617   0.92039   0.00000  Uiso   1.00
H171   H     0.68067   0.56669   0.11836   0.00000  Uiso   1.00
H172   H     0.67379   0.55719   0.86973   0.00000  Uiso   1.00
H173   H     0.74240   0.56958   0.86936   0.00000  Uiso   1.00
H174   H     0.74904   0.57874   0.11253   0.00000  Uiso   1.00
N175   N     0.74879   0.57476   0.99083   0.00000  Uiso   1.00
N176   N     0.84298   0.57606  -0.01084   0.00000  Uiso   1.00
H177   H     0.90360   0.56825   0.11484   0.00000  Uiso   1.00
H178   H     0.84731   0.57875   0.11089   0.00000  Uiso   1.00
H179   H     0.84331   0.57182   0.86751   0.00000  Uiso   1.00
H180   H     0.89988   0.56153   0.86589   0.00000  Uiso   1.00
C181   C     0.67168   0.56083   0.99428   0.00000  Uiso   1.00
C182   C     0.68996   0.56267   0.92376   0.00000  Uiso   1.00
C183   C     0.72879   0.56969   0.92334   0.00000  Uiso   1.00
C184   C     0.73251   0.57481   0.05975   0.00000  Uiso   1.00
C185   C     0.69376   0.56790   0.06284   0.00000  Uiso   1.00
Ni186  Ni    0.24754   0.76208   0.00180   0.00000  Uiso   1.00
C187   C     0.37935   0.88669   0.00416   0.00000  Uiso   1.00
C188   C     0.34522   0.88939   0.00874   0.00000  Uiso   1.00
C189   C     0.30527   0.85156   0.00863   0.00000  Uiso   1.00
C190   C     0.33194   0.80898   1.00002   0.00000  Uiso   1.00
C191   C     0.37216   0.84571   1.00013   0.00000  Uiso   1.00
H192   H     0.09528   0.66694   0.02229   0.00000  Uiso   1.00
H193   H     0.15867   0.60594   0.97455   0.00000  Uiso   1.00
H194   H     0.22408   0.67740   0.97536   0.00000  Uiso   1.00
H195   H     0.16289   0.73761   0.02236   0.00000  Uiso   1.00
N196   N     0.19647   0.71054   0.99926   0.00000  Uiso   1.00
N197   N     0.29954   0.81247   0.00400   0.00000  Uiso   1.00
H198   H     0.34929   0.92027   0.01234   0.00000  Uiso   1.00
H199   H     0.27888   0.85336   0.01191   0.00000  Uiso   1.00
H200   H     0.32638   0.77743   0.99638   0.00000  Uiso   1.00
H201   H     0.39736   0.84190   0.99680   0.00000  Uiso   1.00
C202   C     0.12133   0.63046   0.99828   0.00000  Uiso   1.00
C203   C     0.15834   0.63409   0.98523   0.00000  Uiso   1.00
C204   C     0.19557   0.67451   0.98564   0.00000  Uiso   1.00
C205   C     0.16128   0.70835   0.01181   0.00000  Uiso   1.00
C206   C     0.12304   0.66832   0.01146   0.00000  Uiso   1.00
Ni207  Ni    0.55313   0.76380   0.99338   0.00000  Uiso   1.00
C208   C     0.55527   0.88712   0.99471   0.00000  Uiso   1.00
C209   C     0.55493   0.86845   0.92442   0.00000  Uiso   1.00
C210   C     0.55688   0.83254   0.92459   0.00000  Uiso   1.00
C211   C     0.56185   0.83486   0.06105   0.00000  Uiso   1.00
C212   C     0.56000   0.87077   0.06356   0.00000  Uiso   1.00
H213   H     0.59724   0.66451   0.98176   0.00000  Uiso   1.00
H214   H     0.46755   0.60712   0.01958   0.00000  Uiso   1.00
H215   H     0.48157   0.67945   0.01454   0.00000  Uiso   1.00
H216   H     0.60830   0.73599   0.97771   0.00000  Uiso   1.00
N217   N     0.54538   0.71082   0.99539   0.00000  Uiso   1.00
N218   N     0.55942   0.81609   0.99251   0.00000  Uiso   1.00
H219   H     0.55116   0.88013   0.87016   0.00000  Uiso   1.00
H220   H     0.55450   0.81664   0.87091   0.00000  Uiso   1.00
H221   H     0.56327   0.82069   0.11416   0.00000  Uiso   1.00
H222   H     0.56037   0.88431   0.11889   0.00000  Uiso   1.00
C223   C     0.53135   0.62974   0.00064   0.00000  Uiso   1.00
C224   C     0.49879   0.63463   0.00993   0.00000  Uiso   1.00
C225   C     0.50656   0.67559   0.00713   0.00000  Uiso   1.00
C226   C     0.57766   0.70734   0.98659   0.00000  Uiso   1.00
C227   C     0.57129   0.66681   0.98909   0.00000  Uiso   1.00
Ni228  Ni    0.45786   0.23691   0.00770   0.00000  Uiso   1.00
C229   C     0.47762   0.36999   0.00100   0.00000  Uiso   1.00
C230   C     0.44074   0.33424   0.03052   0.00000  Uiso   1.00
C231   C     0.43475   0.29389   0.03200   0.00000  Uiso   1.00
C232   C     0.49999   0.32322   0.97457   0.00000  Uiso   1.00
C233   C     0.50732   0.36399   0.97228   0.00000  Uiso   1.00
H234   H     0.46335   0.12335   0.13380   0.00000  Uiso   1.00
H235   H     0.45259   0.11668   0.88532   0.00000  Uiso   1.00
H236   H     0.44819   0.17936   0.88827   0.00000  Uiso   1.00
H237   H     0.45882   0.18613   0.13127   0.00000  Uiso   1.00
N238   N     0.45288   0.18529   0.00984   0.00000  Uiso   1.00
N239   N     0.46437   0.28931   0.00448   0.00000  Uiso   1.00
H240   H     0.41724   0.33764   0.05373   0.00000  Uiso   1.00
H241   H     0.40668   0.26640   0.05573   0.00000  Uiso   1.00
H242   H     0.52292   0.31852   0.95299   0.00000  Uiso   1.00
H243   H     0.53596   0.39049   0.94806   0.00000  Uiso   1.00
C244   C     0.45853   0.11516   0.00943   0.00000  Uiso   1.00
C245   C     0.45310   0.13067   0.94026   0.00000  Uiso   1.00
C246   C     0.45042   0.16602   0.94172   0.00000  Uiso   1.00
C247   C     0.45637   0.16980   0.07804   0.00000  Uiso   1.00
C248   C     0.45908   0.13437   0.07927   0.00000  Uiso   1.00
loop_
_geom_bond_atom_site_label_1
_geom_bond_atom_site_label_2
_geom_bond_distance
_geom_bond_site_symmetry_2
_ccdc_geom_bond_type
Ce0    O9      2.260   .     S
Ce0    O10     2.277   .     S
Ce0    O19     2.300   .     S
Ce0    O11     2.286   1_554 S
Ce0    O12     2.311   1_554 S
Ce0    O14     2.275   1_554 S
Ce0    O15     2.256   1_554 S
Ce1    O13     2.299   .     S
Ce1    O15     2.257   .     S
Ce1    O16     2.275   .     S
Ce1    O8      2.277   1_556 S
Ce1    O9      2.257   1_556 S
Ce1    O17     2.285   1_556 S
Ce1    O18     2.310   1_556 S
C2     O8      1.227   .     D
C2     O9      1.400   .     S
C2     C61     1.474   .     S
C3     O10     1.278   .     A
C3     O11     1.281   1_554 A
C3     C181    1.477   1_554 S
C4     O12     1.298   .     A
C4     O13     1.296   .     A
C4     C223    1.483   1_556 S
C5     O14     1.227   .     D
C5     O15     1.399   .     S
C5     C76     1.473   .     S
C6     O16     1.278   .     A
C6     O17     1.281   1_556 A
C6     C124    1.475   1_556 S
C7     O18     1.298   .     A
C7     O19     1.296   .     A
C7     C229    1.479   .     S
O8     Ce1     2.277   1_554 S
O9     Ce1     2.257   1_554 S
O11    Ce0     2.286   1_556 S
O11    C3      1.281   1_556 A
O12    Ce0     2.311   1_556 S
O14    Ce0     2.275   1_556 S
O15    Ce0     2.256   1_556 S
O17    Ce1     2.285   1_554 S
O17    C6      1.281   1_554 A
O18    Ce1     2.310   1_554 S
Ce20   O31     2.285   .     S
Ce20   O34     2.276   .     S
Ce20   O35     2.257   .     S
Ce20   O29     2.259   1_554 S
Ce20   O30     2.275   1_554 S
Ce20   O32     2.306   1_455 S
Ce20   O39     2.300   1_554 S
Ce21   O33     2.299   .     S
Ce21   O36     2.273   .     S
Ce21   O28     2.280   1_554 S
Ce21   O29     2.256   1_654 S
Ce21   O35     2.260   1_655 S
Ce21   O37     2.288   1_554 S
Ce21   O38     2.312   1_654 S
C22    O28     1.227   .     D
C22    O29     1.400   1_655 S
C22    C82     1.476   1_655 S
C23    O30     1.278   .     A
C23    C139    1.475   .     S
C23    O31     1.281   1_556 A
C24    O32     1.297   .     A
C24    O33     1.296   .     A
C24    C145    1.481   .     S
C25    O34     1.227   .     D
C25    O35     1.401   .     S
C25    C97     1.474   1_455 S
C26    O36     1.277   .     A
C26    C166    1.476   .     S
C26    O37     1.282   1_554 A
C27    O38     1.298   .     A
C27    O39     1.297   .     A
C27    C202    1.483   .     S
O28    Ce21    2.280   1_556 S
O29    Ce20    2.259   1_556 S
O29    Ce21    2.256   1_456 S
O29    C22     1.400   1_455 S
O30    Ce20    2.275   1_556 S
O31    C23     1.281   1_554 A
O32    Ce20    2.306   1_655 S
O35    Ce21    2.260   1_455 S
O37    Ce21    2.288   1_556 S
O37    C26     1.282   1_556 A
O38    Ce21    2.312   1_456 S
O39    Ce20    2.300   1_556 S
Ce40   O51     2.284   .     S
Ce40   O54     2.277   .     S
Ce40   O55     2.258   .     S
Ce40   O59     2.303   .     S
Ce40   O49     2.258   1_566 S
Ce40   O50     2.274   1_556 S
Ce40   O52     2.307   1_565 S
Ce41   O48     2.281   .     S
Ce41   O49     2.254   .     S
Ce41   O53     2.303   .     S
Ce41   O57     2.286   .     S
Ce41   O55     2.263   1_544 S
Ce41   O56     2.271   1_554 S
Ce41   O58     2.308   1_545 S
C42    O48     1.227   .     D
C42    O49     1.401   .     S
C42    C103    1.475   .     S
C43    O51     1.281   .     A
C43    C208    1.475   .     S
C43    O50     1.278   1_556 A
C44    O52     1.297   .     A
C44    C160    1.484   .     S
C44    O53     1.297   1_556 A
C45    O54     1.227   .     D
C45    O55     1.402   .     S
C45    C118    1.476   .     S
C46    O57     1.281   .     A
C46    C244    1.475   .     S
C46    O56     1.278   1_554 A
C47    O58     1.297   .     A
C47    C187    1.484   .     S
C47    O59     1.297   1_554 A
O49    Ce40    2.258   1_544 S
O50    Ce40    2.274   1_554 S
O50    C43     1.278   1_554 A
O52    Ce40    2.307   1_545 S
O53    C44     1.297   1_554 A
O55    Ce41    2.263   1_566 S
O56    Ce41    2.271   1_556 S
O56    C46     1.278   1_556 A
O58    Ce41    2.308   1_565 S
O59    C47     1.297   1_556 A
Ni60   N70     1.839   .     S
Ni60   N71     1.839   .     S
C61    C62     1.404   .     A
C61    C65     1.403   .     A
C62    C63     1.396   .     A
C62    H72     1.083   .     S
C63    N71     1.359   .     A
C63    H73     1.081   .     S
C64    C65     1.397   .     A
C64    N71     1.360   .     A
C64    H74     1.082   .     S
C65    H75     1.083   .     S
H66    C80     1.083   .     S
H67    C77     1.083   .     S
H68    C78     1.081   .     S
H69    C79     1.082   .     S
N70    C78     1.359   .     A
N70    C79     1.360   .     A
C76    C77     1.403   .     A
C76    C80     1.403   .     A
C77    C78     1.396   .     A
C79    C80     1.397   .     A
Ni81   N91     1.841   .     S
Ni81   N92     1.841   .     S
C82    C83     1.403   .     A
C82    C86     1.404   1_455 A
C82    C22     1.476   1_455 S
C83    C84     1.396   .     A
C83    H93     1.083   .     S
C84    N92     1.359   .     A
C84    H94     1.082   .     S
C85    C86     1.398   .     A
C85    H95     1.082   .     S
C85    N92     1.360   1_655 A
C86    H96     1.083   .     S
C86    C82     1.404   1_655 A
H87    C101    1.083   .     S
H88    C98     1.083   .     S
H89    C99     1.082   .     S
H90    C100    1.082   .     S
N91    C100    1.360   .     A
N91    C99     1.359   1_455 A
N92    C85     1.360   1_455 A
C97    C98     1.402   .     A
C97    C101    1.404   1_655 A
C97    C25     1.474   1_655 S
C98    C99     1.396   .     A
C99    N91     1.359   1_655 A
C100   C101    1.398   .     A
C101   C97     1.404   1_455 A
Ni102  N113    1.840   .     S
Ni102  N112    1.841   1_545 S
C103   C104    1.402   .     A
C103   C107    1.405   1_545 A
C104   C105    1.395   .     A
C104   H114    1.083   .     S
C105   N113    1.359   .     A
C105   H115    1.082   .     S
C106   C107    1.399   .     A
C106   H116    1.083   .     S
C106   N113    1.360   1_565 A
C107   H117    1.083   .     S
C107   C103    1.405   1_565 A
H108   C122    1.084   .     S
H109   C119    1.083   .     S
H110   C120    1.082   .     S
H111   C121    1.082   .     S
N112   C120    1.357   .     A
N112   Ni102   1.841   1_565 S
N112   C121    1.361   1_565 A
N113   C106    1.360   1_545 A
C118   C119    1.403   .     A
C118   C122    1.405   1_565 A
C119   C120    1.396   .     A
C121   C122    1.399   .     A
C121   N112    1.361   1_545 A
C122   C118    1.405   1_545 A
Ni123  N134    1.838   .     S
Ni123  N133    1.838   1_554 S
C124   C125    1.404   .     A
C124   C128    1.403   1_554 A
C124   C6      1.475   1_554 S
C125   C126    1.397   .     A
C125   H135    1.083   .     S
C126   N134    1.359   .     A
C126   H136    1.082   .     S
C127   C128    1.396   .     A
C127   H137    1.082   .     S
C127   N134    1.359   1_556 A
C128   H138    1.083   .     S
C128   C124    1.403   1_556 A
H129   C143    1.083   .     S
H130   C140    1.082   .     S
H131   C141    1.082   .     S
H132   C142    1.082   .     S
N133   C141    1.358   .     A
N133   Ni123   1.838   1_556 S
N133   C142    1.360   1_556 A
N134   C127    1.359   1_554 A
C139   C140    1.403   .     A
C139   C143    1.404   1_556 A
C140   C141    1.395   .     A
C142   C143    1.398   .     A
C142   N133    1.360   1_554 A
C143   C139    1.404   1_554 A
Ni144  N154    1.840   .     S
Ni144  N155    1.839   1_556 S
C145   C146    1.407   .     A
C145   C149    1.405   1_554 A
C146   C147    1.401   .     A
C146   H156    1.083   .     S
C147   N155    1.360   .     A
C147   H157    1.082   .     S
C148   C149    1.392   .     A
C148   H158    1.082   .     S
C148   N155    1.358   1_556 A
C149   H159    1.083   .     S
C149   C145    1.405   1_556 A
H150   C164    1.083   .     S
H151   C161    1.082   .     S
H152   C162    1.082   .     S
H153   C163    1.082   .     S
N154   C162    1.356   .     A
N154   C163    1.361   1_556 A
N155   Ni144   1.839   1_554 S
N155   C148    1.358   1_554 A
C160   C161    1.405   .     A
C160   C164    1.408   1_556 A
C161   C162    1.392   .     A
C163   C164    1.403   .     A
C163   N154    1.361   1_554 A
C164   C160    1.408   1_554 A
Ni165  N175    1.842   .     S
Ni165  N176    1.843   1_556 S
C166   C167    1.404   .     A
C166   C170    1.403   1_554 A
C167   C168    1.396   .     A
C167   H177    1.083   .     S
C168   N176    1.359   .     A
C168   H178    1.082   .     S
C169   C170    1.399   .     A
C169   H179    1.081   .     S
C169   N176    1.360   1_556 A
C170   H180    1.083   .     S
C170   C166    1.403   1_556 A
H171   C185    1.083   .     S
H172   C182    1.083   .     S
H173   C183    1.082   .     S
H174   C184    1.082   .     S
N175   C183    1.360   .     A
N175   C184    1.359   1_556 A
N176   Ni165   1.843   1_554 S
N176   C169    1.360   1_554 A
C181   C182    1.403   .     A
C181   C185    1.404   1_556 A
C181   C3      1.477   1_556 S
C182   C183    1.398   .     A
C184   C185    1.397   .     A
C184   N175    1.359   1_554 A
C185   C181    1.404   1_554 A
Ni186  N197    1.842   .     S
Ni186  N196    1.841   1_554 S
C187   C188    1.408   .     A
C187   C191    1.405   1_554 A
C188   C189    1.402   .     A
C188   H198    1.083   .     S
C189   N197    1.360   .     A
C189   H199    1.082   .     S
C190   C191    1.393   .     A
C190   H200    1.082   .     S
C190   N197    1.358   1_556 A
C191   H201    1.083   .     S
C191   C187    1.405   1_556 A
H192   C206    1.083   .     S
H193   C203    1.084   .     S
H194   C204    1.082   .     S
H195   C205    1.083   .     S
N196   C204    1.358   .     A
N196   Ni186   1.841   1_556 S
N196   C205    1.361   1_556 A
N197   C190    1.358   1_554 A
C202   C203    1.405   .     A
C202   C206    1.408   1_556 A
C203   C204    1.392   .     A
C205   C206    1.403   .     A
C205   N196    1.361   1_554 A
C206   C202    1.408   1_554 A
Ni207  N217    1.841   .     S
Ni207  N218    1.841   .     S
C208   C209    1.403   .     A
C208   C212    1.403   1_556 A
C209   C210    1.398   .     A
C209   H219    1.084   .     S
C210   N218    1.361   .     A
C210   H220    1.081   .     S
C211   C212    1.396   .     A
C211   H221    1.082   .     S
C211   N218    1.358   1_554 A
C212   H222    1.083   .     S
C212   C208    1.403   1_554 A
H213   C227    1.082   .     S
H214   C224    1.083   .     S
H215   C225    1.082   .     S
H216   C226    1.082   .     S
N217   C226    1.360   .     A
N217   C225    1.358   1_556 A
N218   C211    1.358   1_556 A
C223   C224    1.406   .     A
C223   C227    1.406   1_554 A
C223   C4      1.483   1_554 S
C224   C225    1.394   .     A
C225   N217    1.358   1_554 A
C226   C227    1.401   .     A
C227   C223    1.406   1_556 A
Ni228  N238    1.841   .     S
Ni228  N239    1.842   .     S
C229   C230    1.405   .     A
C229   C233    1.405   1_554 A
C230   C231    1.400   .     A
C230   H240    1.083   .     S
C231   N239    1.362   .     A
C231   H241    1.082   .     S
C232   C233    1.394   .     A
C232   H242    1.083   .     S
C232   N239    1.358   1_556 A
C233   H243    1.083   .     S
C233   C229    1.405   1_556 A
H234   C248    1.083   .     S
H235   C245    1.083   .     S
H236   C246    1.081   .     S
H237   C247    1.082   .     S
N238   C247    1.360   .     A
N238   C246    1.360   1_554 A
N239   C232    1.358   1_554 A
C244   C248    1.404   .     A
C244   C245    1.402   1_554 A
C245   C246    1.395   .     A
C245   C244    1.402   1_556 A
C246   N238    1.360   1_556 A
C247   C248    1.398   .     A
