data_kag+N173+E70
_audit_creation_date              2025-01-21
_audit_creation_method            'Materials Studio'
_symmetry_space_group_name_H-M    'P1'
_symmetry_Int_Tables_number       1
_symmetry_cell_setting            triclinic
loop_
_symmetry_equiv_pos_as_xyz
  x,y,z
_cell_length_a                    22.3543
_cell_length_b                    22.7267
_cell_length_c                    10.5771
_cell_angle_alpha                 93.8900
_cell_angle_beta                  98.9115
_cell_angle_gamma                 122.9386
loop_
_atom_site_label
_atom_site_type_symbol
_atom_site_fract_x
_atom_site_fract_y
_atom_site_fract_z
_atom_site_U_iso_or_equiv
_atom_site_adp_type
_atom_site_occupancy
Gd0    Gd    0.54806   0.41160   0.93657   0.00000  Uiso   1.00
Gd1    Gd    0.61834   0.55462  -0.01658   0.00000  Uiso   1.00
O2     O     0.61646   0.54637   0.19040   0.00000  Uiso   1.00
O3     O     0.55002   0.42554   0.14957   0.00000  Uiso   1.00
O4     O     0.43873   0.39222  -0.11097   0.00000  Uiso   1.00
O5     O     0.49540   0.50954   0.95326   0.00000  Uiso   1.00
O6     O     0.63922   0.39791   0.96673   0.00000  Uiso   1.00
O7     O     0.53378   0.30428  -0.07165   0.00000  Uiso   1.00
O8     O     0.55717   0.42106   0.73044   0.00000  Uiso   1.00
C9     C     0.60168   0.33131   0.95168   0.00000  Uiso   1.00
O10    O     0.59524   0.53600   0.76657   0.00000  Uiso   1.00
O11    O     0.66350   0.49180   0.99069   0.00000  Uiso   1.00
C12    C     0.43648   0.44659  -0.08897   0.00000  Uiso   1.00
O13    O     0.74285   0.59541   0.02130   0.00000  Uiso   1.00
O14    O     0.53550   0.58112  -0.03859   0.00000  Uiso   1.00
O15    O     0.64643   0.66694   0.99399   0.00000  Uiso   1.00
C16    C     0.57874   0.48557   0.22549   0.00000  Uiso   1.00
C17    C     0.58035   0.64723  -0.03497   0.00000  Uiso   1.00
C18    C     0.73142   0.53513   0.02229   0.00000  Uiso   1.00
C19    C     0.57359   0.47873   0.68941   0.00000  Uiso   1.00
Gd20   Gd    0.07510   0.54331   1.05096   0.00000  Uiso   1.00
Gd21   Gd    0.17204   0.52991   0.07615   0.00000  Uiso   1.00
O22    O     0.17538   0.53715   0.29061   0.00000  Uiso   1.00
O23    O     0.08604   0.55331   0.26283   0.00000  Uiso   1.00
O24    O     0.16195   0.66065   0.08340   0.00000  Uiso   1.00
O25    O     0.25349   0.64729   0.11096   0.00000  Uiso   1.00
O26    O     0.95387   0.46425   1.03594   0.00000  Uiso   1.00
O27    O     0.99301   0.57171   0.03782   0.00000  Uiso   1.00
O28    O     0.06598   0.53849   0.83904   0.00000  Uiso   1.00
C29    C     0.93919   0.51087   0.04069   0.00000  Uiso   1.00
O30    O     0.16222   0.53189   0.86050   0.00000  Uiso   1.00
O31    O     0.99492   0.42297   1.01940   0.00000  Uiso   1.00
C32    C     0.23032   0.68743   0.10772   0.00000  Uiso   1.00
O33    O     0.08919   0.41354   1.03910   0.00000  Uiso   1.00
O34    O     0.25990   0.50813   0.08550   0.00000  Uiso   1.00
O35    O     0.21011   0.51177   0.90180   0.00000  Uiso   1.00
C36    C     0.13457   0.55112   0.33711   0.00000  Uiso   1.00
C37    C     0.25488   0.49982   0.96373   0.00000  Uiso   1.00
C38    C     1.02039   0.38425   1.01672   0.00000  Uiso   1.00
C39    C     0.11555   0.54005   0.79203   0.00000  Uiso   1.00
Gd40   Gd    0.54149   0.97253   0.91846   0.00000  Uiso   1.00
Gd41   Gd    0.67514   0.02271  -0.00689   0.00000  Uiso   1.00
O42    O     0.69788   0.03618   0.20052   0.00000  Uiso   1.00
O43    O     0.57594   0.97299   0.14331   0.00000  Uiso   1.00
O44    O     0.56789   0.08242  -0.03797   0.00000  Uiso   1.00
O45    O     0.68759   0.12776   1.01073   0.00000  Uiso   1.00
O46    O     0.42355   0.91919   0.92527   0.00000  Uiso   1.00
O47    O     0.50035   0.94202   0.09853   0.00000  Uiso   1.00
O48    O     0.52577   0.97370   0.69030   0.00000  Uiso   1.00
C49    C     0.43357   0.91364   1.04400   0.00000  Uiso   1.00
O50    O     0.62147   0.00358   0.79458   0.00000  Uiso   1.00
O51    O     0.52368   0.86747   0.87538   0.00000  Uiso   1.00
C52    C     0.63446   0.13560  -0.01163   0.00000  Uiso   1.00
O53    O     0.63788   0.90785  -0.02664   0.00000  Uiso   1.00
O54    O     0.75665   0.14050   0.00341   0.00000  Uiso   1.00
O55    O     0.78795   0.06998   0.96000   0.00000  Uiso   1.00
C56    C     0.63668   0.00400   0.23317   0.00000  Uiso   1.00
C57    C     0.80644   0.13402  -0.02512   0.00000  Uiso   1.00
C58    C     0.57296   0.85665   0.91491   0.00000  Uiso   1.00
C59    C     0.58961  -0.00765   0.68374   0.00000  Uiso   1.00
N60    N     0.58690   0.47740   0.46023   0.00000  Uiso   1.00
H61    H     0.46564   0.49288   0.27014   0.00000  Uiso   1.00
C62    C     0.55611   0.48433   0.34768   0.00000  Uiso   1.00
C63    C     0.49695   0.48775   0.35262   0.00000  Uiso   1.00
C64    C     0.55042   0.47655   0.55110   0.00000  Uiso   1.00
S65    S     0.47819   0.48406   0.50164   0.00000  Uiso   1.00
N66    N     0.12306   0.53040   0.56076   0.00000  Uiso   1.00
H67    H     0.17089   0.67666   0.75450   0.00000  Uiso   1.00
C68    C     0.12995   0.56759   0.67231   0.00000  Uiso   1.00
C69    C     0.16022   0.63883   0.67170   0.00000  Uiso   1.00
C70    C     0.14802   0.57502   0.47545   0.00000  Uiso   1.00
S71    S     0.17966   0.66199   0.52773   0.00000  Uiso   1.00
N72    N     0.59653  -0.00400   0.44672   0.00000  Uiso   1.00
H73    H     0.73396   0.98782   0.39220   0.00000  Uiso   1.00
C74    C     0.63913  -0.00601   0.37062   0.00000  Uiso   1.00
C75    C     0.69395   0.98882   0.43647   0.00000  Uiso   1.00
C76    C     0.62091  -0.00760   0.57040   0.00000  Uiso   1.00
S77    S     0.69592   0.98814   0.59632   0.00000  Uiso   1.00
N78    N     0.34765   0.47202   0.96104   0.00000  Uiso   1.00
H79    H     0.33740   0.39868   0.67152   0.00000  Uiso   1.00
C80    C     0.36719   0.44108   0.87867   0.00000  Uiso   1.00
C81    C     0.32659   0.42016   0.75274   0.00000  Uiso   1.00
C82    C     0.29151   0.47363   0.89765   0.00000  Uiso   1.00
S83    S     0.26133   0.43820   0.73424   0.00000  Uiso   1.00
N84    N     0.90354   0.26358  -0.00437   0.00000  Uiso   1.00
H85    H     1.05533   0.29128   0.92657   0.00000  Uiso   1.00
C86    C     0.97345   0.30527   0.98398   0.00000  Uiso   1.00
C87    C     1.00052   0.26710   0.94265   0.00000  Uiso   1.00
C88    C     0.87873   0.19387   0.96319   0.00000  Uiso   1.00
S89    S     0.93923   0.17754   0.91708   0.00000  Uiso   1.00
N90    N     0.83718   0.52708   0.00932   0.00000  Uiso   1.00
H91    H     0.86942   0.44849   1.23544   0.00000  Uiso   1.00
C92    C     0.87161   0.49932   0.06797   0.00000  Uiso   1.00
C93    C     0.84616   0.47049   1.17342   0.00000  Uiso   1.00
C94    C     0.78458   0.51783   0.06957   0.00000  Uiso   1.00
S95    S     0.77796   0.47820   1.20314   0.00000  Uiso   1.00
N96    N     0.32141   0.80060   0.05095   0.00000  Uiso   1.00
H97    H     0.42191   0.93292   1.30170   0.00000  Uiso   1.00
C98    C     0.37418   0.86854   0.10694   0.00000  Uiso   1.00
C99    C     0.37860   0.88311   1.23811   0.00000  Uiso   1.00
C100   C     0.28268   0.76504   0.13682   0.00000  Uiso   1.00
S101   S     0.31202   0.81240   1.29185   0.00000  Uiso   1.00
N102   N     0.58867   0.76007  -0.04022   0.00000  Uiso   1.00
H103   H     0.45994   0.74183   0.72607   0.00000  Uiso   1.00
C104   C     0.55286   0.78342   0.89017   0.00000  Uiso   1.00
C105   C     0.49414   0.73201   0.79271   0.00000  Uiso   1.00
C106   C     0.55503   0.68994   0.91560   0.00000  Uiso   1.00
S107   S     0.48023   0.65086   0.78710   0.00000  Uiso   1.00
N108   N     0.60386   0.22468  -0.02552   0.00000  Uiso   1.00
H109   H     0.74216   0.37904   0.92946   0.00000  Uiso   1.00
C110   C     0.63655   0.29267  -0.04316   0.00000  Uiso   1.00
C111   C     0.70840   0.32538   0.94837   0.00000  Uiso   1.00
C112   C     0.65299   0.20729  -0.01858   0.00000  Uiso   1.00
S113   S     0.73910   0.27244   0.96551   0.00000  Uiso   1.00
loop_
_geom_bond_atom_site_label_1
_geom_bond_atom_site_label_2
_geom_bond_distance
_geom_bond_site_symmetry_2
_ccdc_geom_bond_type
Gd0    O6      2.203   .     S
Gd0    O8      2.235   .     S
Gd0    O11     2.144   .     S
Gd0    O3      2.244   1_556 S
Gd0    O4      2.200   1_556 S
Gd0    O7      2.275   1_556 S
Gd1    O2      2.215   .     S
Gd1    O13     2.359   .     S
Gd1    O14     2.224   .     S
Gd1    O5      2.308   1_554 S
Gd1    O10     2.229   1_554 S
Gd1    O15     2.263   1_554 S
O2     C16     1.287   .     A
O3     C16     1.288   .     A
O3     Gd0     2.244   1_554 S
O4     C12     1.271   .     A
O4     Gd0     2.200   1_554 S
O5     Gd1     2.308   1_556 S
O5     C12     1.290   1_556 A
O6     C9      1.251   .     A
O7     Gd0     2.275   1_554 S
O7     C9      1.262   1_554 A
O8     C19     1.282   .     A
C9     O7      1.262   1_556 A
C9     C110    1.456   1_556 S
O10    C19     1.282   .     A
O10    Gd1     2.229   1_556 S
O11    C18     1.249   1_556 A
C12    O5      1.290   1_554 A
C12    C80     1.467   1_554 S
O13    C18     1.251   .     A
O14    C17     1.267   .     A
O15    Gd1     2.263   1_556 S
O15    C17     1.264   1_556 A
C16    C62     1.456   .     S
C17    O15     1.264   1_554 A
C17    C106    1.453   1_554 S
C18    C94     1.472   .     S
C18    O11     1.249   1_554 A
C19    C64     1.462   .     S
Gd20   O28     2.209   .     S
Gd20   O23     2.199   1_556 S
Gd20   O24     2.244   1_556 S
Gd20   O26     2.265   1_455 S
Gd20   O27     2.242   1_456 S
Gd20   O31     2.272   1_455 S
Gd21   O22     2.250   .     S
Gd21   O25     2.224   .     S
Gd21   O34     2.262   .     S
Gd21   O30     2.263   1_554 S
Gd21   O33     2.210   1_554 S
Gd21   O35     2.249   1_554 S
O22    C36     1.268   .     A
O23    C36     1.263   .     A
O23    Gd20    2.199   1_554 S
O24    C32     1.272   .     A
O24    Gd20    2.244   1_554 S
O25    C32     1.271   .     A
O26    Gd20    2.265   1_655 S
O26    C29     1.269   1_556 A
O27    C29     1.252   .     A
O27    Gd20    2.242   1_654 S
O28    C39     1.268   .     A
C29    C92     1.466   .     S
C29    O26     1.269   1_554 A
O30    C39     1.281   .     A
O30    Gd21    2.263   1_556 S
O31    C38     1.283   .     A
O31    Gd20    2.272   1_655 S
C32    C100    1.465   .     S
O33    Gd21    2.210   1_556 S
O33    C38     1.272   1_455 A
O34    C37     1.267   1_554 A
O35    C37     1.273   .     A
O35    Gd21    2.249   1_556 S
C36    C70     1.451   .     S
C37    C82     1.471   .     S
C37    O34     1.267   1_556 A
C38    C86     1.482   .     S
C38    O33     1.272   1_655 A
C39    C68     1.454   .     S
Gd40   O46     2.241   .     S
Gd40   O48     2.388   .     S
Gd40   O51     2.198   .     S
Gd40   O43     2.381   1_556 S
Gd40   O44     2.226   1_566 S
Gd40   O47     2.232   1_556 S
Gd41   O42     2.135   .     S
Gd41   O54     2.257   .     S
Gd41   O45     2.239   1_554 S
Gd41   O50     2.137   1_554 S
Gd41   O53     2.249   1_545 S
Gd41   O55     2.239   1_554 S
O42    C56     1.272   .     A
O43    Gd40    2.381   1_554 S
O43    C56     1.309   1_565 A
O44    C52     1.274   .     A
O44    Gd40    2.226   1_544 S
O45    Gd41    2.239   1_556 S
O45    C52     1.284   1_556 A
O46    C49     1.268   .     A
O47    Gd40    2.232   1_554 S
O47    C49     1.270   1_554 A
O48    C59     1.264   1_565 A
C49    O47     1.270   1_556 A
C49    C98     1.464   1_556 S
O50    C59     1.204   .     A
O50    Gd41    2.137   1_556 S
O51    C58     1.271   .     A
C52    C112    1.457   .     S
C52    O45     1.284   1_554 A
O53    Gd41    2.249   1_565 S
O53    C58     1.277   1_554 A
O54    C57     1.276   .     A
O55    Gd41    2.239   1_556 S
O55    C57     1.268   1_556 A
C56    C74     1.484   .     S
C56    O43     1.309   1_545 A
C57    O55     1.268   1_554 A
C57    C88     1.473   1_554 S
C58    C104    1.460   .     S
C58    O53     1.277   1_556 A
C59    C76     1.479   .     S
C59    O48     1.264   1_545 A
N60    C62     1.344   .     A
N60    C64     1.348   .     A
H61    C63     1.085   .     S
C62    C63     1.375   .     A
C63    S65     1.689   .     A
C64    S65     1.721   .     A
N66    C68     1.341   .     A
N66    C70     1.349   .     A
H67    C69     1.083   .     S
C68    C69     1.375   .     A
C69    S71     1.688   .     A
C70    S71     1.710   .     A
N72    C74     1.355   .     A
N72    C76     1.363   .     A
H73    C75     1.082   .     S
C74    C75     1.380   1_545 A
C75    S77     1.686   .     A
C75    C74     1.380   1_565 A
C76    S77     1.713   1_545 A
S77    C76     1.713   1_565 A
N78    C80     1.347   .     A
N78    C82     1.348   .     A
H79    C81     1.082   .     S
C80    C81     1.376   .     A
C80    C12     1.467   1_556 S
C81    S83     1.705   .     A
C82    S83     1.717   .     A
N84    C86     1.349   1_554 A
N84    C88     1.359   1_554 A
H85    C87     1.085   .     S
C86    C87     1.382   .     A
C86    N84     1.349   1_556 A
C87    S89     1.694   .     A
C88    S89     1.712   .     A
C88    N84     1.359   1_556 A
C88    C57     1.473   1_556 S
N90    C92     1.345   .     A
N90    C94     1.347   .     A
H91    C93     1.083   .     S
C92    C93     1.374   1_554 A
C93    S95     1.699   .     A
C93    C92     1.374   1_556 A
C94    S95     1.709   1_554 A
S95    C94     1.709   1_556 A
N96    C98     1.344   .     A
N96    C100    1.345   .     A
H97    C99     1.084   .     S
C98    C99     1.380   1_554 A
C98    C49     1.464   1_554 S
C99    S101    1.705   .     A
C99    C98     1.380   1_556 A
C100   S101    1.714   1_554 A
S101   C100    1.714   1_556 A
N102   C104    1.340   1_554 A
N102   C106    1.346   1_554 A
H103   C105    1.082   .     S
C104   C105    1.379   .     A
C104   N102    1.340   1_556 A
C105   S107    1.690   .     A
C106   S107    1.717   .     A
C106   N102    1.346   1_556 A
C106   C17     1.453   1_556 S
N108   C110    1.345   .     A
N108   C112    1.349   .     A
H109   C111    1.084   .     S
C110   C111    1.377   1_554 A
C110   C9      1.456   1_554 S
C111   S113    1.685   .     A
C111   C110    1.377   1_556 A
C112   S113    1.721   1_554 A
S113   C112    1.721   1_556 A
