data_kag+N394+E225
_audit_creation_date              2025-01-21
_audit_creation_method            'Materials Studio'
_symmetry_space_group_name_H-M    'P1'
_symmetry_Int_Tables_number       1
_symmetry_cell_setting            triclinic
loop_
_symmetry_equiv_pos_as_xyz
  x,y,z
_cell_length_a                    39.9147
_cell_length_b                    42.7137
_cell_length_c                    19.0298
_cell_angle_alpha                 91.4013
_cell_angle_beta                  90.7886
_cell_angle_gamma                 113.8572
loop_
_atom_site_label
_atom_site_type_symbol
_atom_site_fract_x
_atom_site_fract_y
_atom_site_fract_z
_atom_site_U_iso_or_equiv
_atom_site_adp_type
_atom_site_occupancy
Pr0    Pr    0.51275   0.54070  -0.00104   0.00000  Uiso   1.00
Pr1    Pr    0.49206   0.46463   1.00741   0.00000  Uiso   1.00
O2     O     0.43328   0.46326   1.01087   0.00000  Uiso   1.00
O3     O     0.45075   0.52110   0.00062   0.00000  Uiso   1.00
O4     O     0.51915   0.59067   0.94924   0.00000  Uiso   1.00
O5     O     0.52221   0.58913   0.06214   0.00000  Uiso   1.00
O6     O     0.51204   0.50707   0.08869   0.00000  Uiso   1.00
O7     O     0.50582   0.55427   0.11360   0.00000  Uiso   1.00
C8     C     0.49284   0.47268   0.86815   0.00000  Uiso   1.00
C9     C     0.42630   0.49048   0.00808   0.00000  Uiso   1.00
C10    C     0.52072   0.60596   1.00860   0.00000  Uiso   1.00
C11    C     0.48337   0.39892   0.00258   0.00000  Uiso   1.00
C12    C     0.57889   0.51580   0.99928   0.00000  Uiso   1.00
C13    C     0.50219   0.52657   0.13598   0.00000  Uiso   1.00
O14    O     0.57148   0.54292   0.00063   0.00000  Uiso   1.00
O15    O     0.55473   0.48430   1.00100   0.00000  Uiso   1.00
O16    O     0.48513   0.41517   0.06089   0.00000  Uiso   1.00
O17    O     0.48100   0.41464   0.94759   0.00000  Uiso   1.00
O18    O     0.50046   0.49873   0.91819   0.00000  Uiso   1.00
O19    O     0.48408   0.44438   0.89289   0.00000  Uiso   1.00
Pr20   Pr    0.97862   0.46168   1.00905   0.00000  Uiso   1.00
Pr21   Pr    0.02898   0.54218  -0.00977   0.00000  Uiso   1.00
O22    O     0.97025   0.54198  -0.01339   0.00000  Uiso   1.00
O23    O     0.93586   0.48408   0.99526   0.00000  Uiso   1.00
O24    O     0.93365   0.42150   0.06716   0.00000  Uiso   1.00
O25    O     0.94672   0.40717   0.96504   0.00000  Uiso   1.00
O26    O     0.01404   0.49377   0.92373   0.00000  Uiso   1.00
O27    O     0.95764   0.46895   0.89802   0.00000  Uiso   1.00
C28    C     0.02091   0.51628   0.12383   0.00000  Uiso   1.00
C29    C     0.93927   0.51544   0.99235   0.00000  Uiso   1.00
C30    C     0.92431   0.39978   0.01579   0.00000  Uiso   1.00
C31    C     0.08077   0.60590   0.99287   0.00000  Uiso   1.00
C32    C     0.06923   0.48967   0.00879   0.00000  Uiso   1.00
C33    C     0.98678   0.48674   0.87453   0.00000  Uiso   1.00
O34    O     0.03802   0.46288   1.01019   0.00000  Uiso   1.00
O35    O     0.07263   0.52108   0.00691   0.00000  Uiso   1.00
O36    O     0.07316   0.58646   0.93775   0.00000  Uiso   1.00
O37    O     0.05809   0.59479   0.04237   0.00000  Uiso   1.00
O38    O     0.99382   0.50987   0.07477   0.00000  Uiso   1.00
O39    O     0.05006   0.53440   0.10093   0.00000  Uiso   1.00
Pr40   Pr    0.54522   0.02588  -0.01761   0.00000  Uiso   1.00
Pr41   Pr    0.45622   0.97917   1.02124   0.00000  Uiso   1.00
O42    O     0.46524   0.03769   0.01446   0.00000  Uiso   1.00
O43    O     0.52614   0.06905  -0.00695   0.00000  Uiso   1.00
O44    O     0.57191   0.08337   0.97447   0.00000  Uiso   1.00
O45    O     0.60471   0.05703   0.01289   0.00000  Uiso   1.00
O46    O     0.51214   0.99292   0.07315   0.00000  Uiso   1.00
O47    O     0.54108   0.04335   0.10081   0.00000  Uiso   1.00
C48    C     0.48168   0.98857   0.88119   0.00000  Uiso   1.00
C49    C     0.49356   0.06667   0.00646   0.00000  Uiso   1.00
C50    C     0.60349   0.08540   0.99509   0.00000  Uiso   1.00
C51    C     0.39753   0.92010   0.00436   0.00000  Uiso   1.00
C52    C     0.51006   0.93968   0.99703   0.00000  Uiso   1.00
C53    C     0.52147   0.01695   0.12476   0.00000  Uiso   1.00
O54    O     0.53803   0.96853   0.98878   0.00000  Uiso   1.00
O55    O     0.47731   0.93717   1.00784   0.00000  Uiso   1.00
O56    O     0.42585   0.92324   0.04091   0.00000  Uiso   1.00
O57    O     0.39861   0.94786   0.97768   0.00000  Uiso   1.00
O58    O     0.48910   0.01256   0.93256   0.00000  Uiso   1.00
O59    O     0.46294   0.96165   0.90451   0.00000  Uiso   1.00
C60    C     0.49378   0.51710   0.20849   0.00000  Uiso   1.00
C61    C     0.51353   0.50150   0.24407   0.00000  Uiso   1.00
C62    C     0.50536   0.49167   0.31308   0.00000  Uiso   1.00
C63    C     0.47684   0.49716   0.34704   0.00000  Uiso   1.00
C64    C     0.45644   0.51160   0.30987   0.00000  Uiso   1.00
C65    C     0.46514   0.52210   0.24136   0.00000  Uiso   1.00
C66    C     0.49426   0.48841   0.46369   0.00000  Uiso   1.00
H67    H     0.45383   0.49409   0.77922   0.00000  Uiso   1.00
H68    H     0.46411   0.50466   0.65529   0.00000  Uiso   1.00
H69    H     0.55651   0.47622   0.66689   0.00000  Uiso   1.00
H70    H     0.54588   0.46598   0.79258   0.00000  Uiso   1.00
H71    H     0.46698   0.49748   0.54736   0.00000  Uiso   1.00
O72    O     0.51816   0.49348   0.57830   0.00000  Uiso   1.00
O73    O     0.46724   0.48908   0.41689   0.00000  Uiso   1.00
C74    C     0.49875   0.47891   0.79374   0.00000  Uiso   1.00
C75    C     0.47633   0.49037   0.75461   0.00000  Uiso   1.00
C76    C     0.48200   0.49570   0.68300   0.00000  Uiso   1.00
C77    C     0.51063   0.48977   0.65012   0.00000  Uiso   1.00
C78    C     0.53389   0.47995   0.69101   0.00000  Uiso   1.00
C79    C     0.52794   0.47430   0.76225   0.00000  Uiso   1.00
C80    C     0.49077   0.49330   0.53152   0.00000  Uiso   1.00
H81    H     0.52118   0.47958   0.33815   0.00000  Uiso   1.00
H82    H     0.43400   0.51518   0.33493   0.00000  Uiso   1.00
H83    H     0.53557   0.49734   0.21857   0.00000  Uiso   1.00
H84    H     0.51825   0.48455   0.44749   0.00000  Uiso   1.00
H85    H     0.44911   0.53338   0.21368   0.00000  Uiso   1.00
C86    C     0.99327   0.49538   0.80009   0.00000  Uiso   1.00
C87    C     0.96605   0.47915   0.74799   0.00000  Uiso   1.00
C88    C     0.97411   0.48447   0.67669   0.00000  Uiso   1.00
C89    C     0.00990   0.50581   0.65643   0.00000  Uiso   1.00
C90    C     0.03656   0.52239   0.70905   0.00000  Uiso   1.00
C91    C     0.02848   0.51720   0.78001   0.00000  Uiso   1.00
C92    C     0.99959   0.49110   0.53086   0.00000  Uiso   1.00
H93    H     0.06866   0.53850   0.23633   0.00000  Uiso   1.00
H94    H     0.05652   0.52229   0.35758   0.00000  Uiso   1.00
H95    H     0.94459   0.45584   0.29845   0.00000  Uiso   1.00
H96    H     0.95782   0.47140   0.17576   0.00000  Uiso   1.00
H97    H     0.03258   0.52349   0.45683   0.00000  Uiso   1.00
O98    O     0.98879   0.47818   0.40824   0.00000  Uiso   1.00
O99    O     0.02049   0.51306   0.58621   0.00000  Uiso   1.00
C100   C     0.01440   0.50547   0.19694   0.00000  Uiso   1.00
C101   C     0.04174   0.51989   0.24941   0.00000  Uiso   1.00
C102   C     0.03425   0.51111   0.31959   0.00000  Uiso   1.00
C103   C     0.99877   0.48824   0.33873   0.00000  Uiso   1.00
C104   C     0.97187   0.47364   0.28546   0.00000  Uiso   1.00
C105   C     0.97945   0.48234   0.21546   0.00000  Uiso   1.00
C106   C     0.00937   0.49951   0.46471   0.00000  Uiso   1.00
H107   H     0.95216   0.47187   0.63862   0.00000  Uiso   1.00
H108   H     0.06407   0.53901   0.69482   0.00000  Uiso   1.00
H109   H     0.93884   0.46165   0.76232   0.00000  Uiso   1.00
H110   H     0.97631   0.46728   0.53976   0.00000  Uiso   1.00
H111   H     0.05001   0.52968   0.81930   0.00000  Uiso   1.00
C112   C     0.51273   0.01040   0.20007   0.00000  Uiso   1.00
C113   C     0.52215   0.03707   0.25139   0.00000  Uiso   1.00
C114   C     0.51641   0.02978   0.32311   0.00000  Uiso   1.00
C115   C     0.50181   0.99550   0.34493   0.00000  Uiso   1.00
C116   C     0.49163   0.96922   0.29306   0.00000  Uiso   1.00
C117   C     0.49694   0.97645   0.22178   0.00000  Uiso   1.00
C118   C     0.51307   0.00866   0.47214   0.00000  Uiso   1.00
H119   H     0.47374   0.94226   0.77181   0.00000  Uiso   1.00
H120   H     0.49189   0.95483   0.65046   0.00000  Uiso   1.00
H121   H     0.53637   0.06311   0.70280   0.00000  Uiso   1.00
H122   H     0.51907   0.05048   0.82514   0.00000  Uiso   1.00
H123   H     0.49032   0.97081   0.54520   0.00000  Uiso   1.00
O124   O     0.52418   0.02047   0.59573   0.00000  Uiso   1.00
O125   O     0.49584   0.98538   0.41565   0.00000  Uiso   1.00
C126   C     0.49421   0.99532   0.80776   0.00000  Uiso   1.00
C127   C     0.48718   0.96874   0.75715   0.00000  Uiso   1.00
C128   C     0.49727   0.97614   0.68688   0.00000  Uiso   1.00
C129   C     0.51426   0.01045   0.66562   0.00000  Uiso   1.00
C130   C     0.52268   0.03665   0.71734   0.00000  Uiso   1.00
C131   C     0.51279   0.02933   0.78732   0.00000  Uiso   1.00
C132   C     0.50781   0.99750   0.53827   0.00000  Uiso   1.00
H133   H     0.52351   0.05111   0.36027   0.00000  Uiso   1.00
H134   H     0.48030   0.94278   0.30840   0.00000  Uiso   1.00
H135   H     0.53421   0.06358   0.23631   0.00000  Uiso   1.00
H136   H     0.53066   0.03527   0.46414   0.00000  Uiso   1.00
H137   H     0.48963   0.95533   0.18373   0.00000  Uiso   1.00
C138   C     0.38910   0.48876   1.01801   0.00000  Uiso   1.00
C139   C     0.36380   0.48048   0.96146   0.00000  Uiso   1.00
C140   C     0.33367   0.48951   0.96437   0.00000  Uiso   1.00
C141   C     0.32868   0.50740   0.02421   0.00000  Uiso   1.00
C142   C     0.35360   0.51468   0.08085   0.00000  Uiso   1.00
C143   C     0.38329   0.50543   0.07807   0.00000  Uiso   1.00
C144   C     0.27243   0.51091   0.98045   0.00000  Uiso   1.00
H145   H     0.12708   0.51310   0.10073   0.00000  Uiso   1.00
H146   H     0.18956   0.52359   0.07453   0.00000  Uiso   1.00
H147   H     0.15413   0.47438   0.86938   0.00000  Uiso   1.00
H148   H     0.09070   0.46346   0.89761   0.00000  Uiso   1.00
H149   H     0.24065   0.52480   0.04900   0.00000  Uiso   1.00
O150   O     0.21273   0.50462   0.94741   0.00000  Uiso   1.00
O151   O     0.30039   0.51891   0.03197   0.00000  Uiso   1.00
C152   C     0.10389   0.48567   0.00280   0.00000  Uiso   1.00
C153   C     0.13253   0.50284   0.05166   0.00000  Uiso   1.00
C154   C     0.16877   0.50912   0.03576   0.00000  Uiso   1.00
C155   C     0.17710   0.49859   0.96960   0.00000  Uiso   1.00
C156   C     0.14826   0.48151   0.92127   0.00000  Uiso   1.00
C157   C     0.11202   0.47476   0.93778   0.00000  Uiso   1.00
C158   C     0.24196   0.51482  -0.00318   0.00000  Uiso   1.00
H159   H     0.31584   0.48338   0.91847   0.00000  Uiso   1.00
H160   H     0.35064   0.52880   0.12670   0.00000  Uiso   1.00
H161   H     0.36852   0.46886   0.91349   0.00000  Uiso   1.00
H162   H     0.27403   0.50103   0.92839   0.00000  Uiso   1.00
H163   H     0.40306   0.51322   0.12138   0.00000  Uiso   1.00
C164   C     0.88735   0.37197   0.01144   0.00000  Uiso   1.00
C165   C     0.88026   0.34006   0.97912   0.00000  Uiso   1.00
C166   C     0.84427   0.31487   0.97394   0.00000  Uiso   1.00
C167   C     0.81450   0.32196   0.99832   0.00000  Uiso   1.00
C168   C     0.82202   0.35440   0.02814   0.00000  Uiso   1.00
C169   C     0.85787   0.37899   0.03545   0.00000  Uiso   1.00
C170   C     0.76722   0.26582   0.96527   0.00000  Uiso   1.00
H171   H     0.60938   0.15011   0.02722   0.00000  Uiso   1.00
H172   H     0.66149   0.20386   0.00579   0.00000  Uiso   1.00
H173   H     0.72222   0.14714   0.92771   0.00000  Uiso   1.00
H174   H     0.67026   0.09327   0.95078   0.00000  Uiso   1.00
H175   H     0.71548   0.24619   1.01044   0.00000  Uiso   1.00
O176   O     0.72722   0.20847   0.94694   0.00000  Uiso   1.00
O177   O     0.77739   0.29841   0.99724   0.00000  Uiso   1.00
C178   C     0.63634   0.11770   0.99271   0.00000  Uiso   1.00
C179   C     0.63441   0.14932   0.00764   0.00000  Uiso   1.00
C180   C     0.66442   0.18014  -0.00473   0.00000  Uiso   1.00
C181   C     0.69660   0.17948   0.96649   0.00000  Uiso   1.00
C182   C     0.69806   0.14784   0.95170   0.00000  Uiso   1.00
C183   C     0.66859   0.11725   0.96554   0.00000  Uiso   1.00
C184   C     0.73446   0.24097   0.97675   0.00000  Uiso   1.00
H185   H     0.84069   0.29040   0.95099   0.00000  Uiso   1.00
H186   H     0.79966   0.36060   0.04567   0.00000  Uiso   1.00
H187   H     0.90257   0.33451   0.95878   0.00000  Uiso   1.00
H188   H     0.78522   0.25947   0.93139   0.00000  Uiso   1.00
H189   H     0.86238   0.40399   0.05798   0.00000  Uiso   1.00
C190   C     0.90517   0.51964   1.00440   0.00000  Uiso   1.00
C191   C     0.88613   0.52735   0.95007   0.00000  Uiso   1.00
C192   C     0.84934   0.52193   0.95808   0.00000  Uiso   1.00
C193   C     0.83124   0.50900   0.02148   0.00000  Uiso   1.00
C194   C     0.85097   0.50195   0.07556   0.00000  Uiso   1.00
C195   C     0.88742   0.50723   0.06729   0.00000  Uiso   1.00
C196   C     0.77398   0.51281   0.98815   0.00000  Uiso   1.00
H197   H     0.61811   0.49697   0.09203   0.00000  Uiso   1.00
H198   H     0.67821   0.49693   0.07679   0.00000  Uiso   1.00
H199   H     0.68307   0.54016   0.87160   0.00000  Uiso   1.00
H200   H     0.62264   0.54106   0.88998   0.00000  Uiso   1.00
H201   H     0.72778   0.49375   0.04956   0.00000  Uiso   1.00
O202   O     0.72066   0.51974   0.95599   0.00000  Uiso   1.00
O203   O     0.79405   0.50135   0.03406   0.00000  Uiso   1.00
C204   C     0.61693   0.52016  -0.00668   0.00000  Uiso   1.00
C205   C     0.63279   0.50723   0.04473   0.00000  Uiso   1.00
C206   C     0.66729   0.50692   0.03495   0.00000  Uiso   1.00
C207   C     0.68597   0.51889   0.97186   0.00000  Uiso   1.00
C208   C     0.66948   0.53145   0.92066   0.00000  Uiso   1.00
C209   C     0.63538   0.53233   0.93131   0.00000  Uiso   1.00
C210   C     0.73961   0.50742   0.00271   0.00000  Uiso   1.00
H211   H     0.83556   0.52668   0.91314   0.00000  Uiso   1.00
H212   H     0.83764   0.49134   0.12391   0.00000  Uiso   1.00
H213   H     0.89890   0.53545   0.90011   0.00000  Uiso   1.00
H214   H     0.78534   0.52684   0.94160   0.00000  Uiso   1.00
H215   H     0.90127   0.49971   0.10877   0.00000  Uiso   1.00
C216   C     0.36705   0.88627  -0.00736   0.00000  Uiso   1.00
C217   C     0.35511   0.86378   0.04844   0.00000  Uiso   1.00
C218   C     0.32926   0.83012   0.03674   0.00000  Uiso   1.00
C219   C     0.31550   0.81790   0.96811   0.00000  Uiso   1.00
C220   C     0.32784   0.84050   0.91264   0.00000  Uiso   1.00
C221   C     0.35293   0.87447   0.92464   0.00000  Uiso   1.00
C222   C     0.27303   0.76066   0.00291   0.00000  Uiso   1.00
H223   H     0.12423   0.64593   0.89226   0.00000  Uiso   1.00
H224   H     0.18655   0.68731   0.90683   0.00000  Uiso   1.00
H225   H     0.18264   0.67058   0.13043   0.00000  Uiso   1.00
H226   H     0.11903   0.62932   0.11506   0.00000  Uiso   1.00
H227   H     0.23677   0.72749   0.92926   0.00000  Uiso   1.00
O228   O     0.22577   0.70839   0.03604   0.00000  Uiso   1.00
O229   O     0.28977   0.78436   0.95058   0.00000  Uiso   1.00
C230   C     0.11617   0.63558   1.00283   0.00000  Uiso   1.00
C231   C     0.13628   0.65212   0.94486   0.00000  Uiso   1.00
C232   C     0.17257   0.67608   0.95376   0.00000  Uiso   1.00
C233   C     0.18976   0.68380   0.02134   0.00000  Uiso   1.00
C234   C     0.16974   0.66626   0.07854   0.00000  Uiso   1.00
C235   C     0.13324   0.64295   0.06980   0.00000  Uiso   1.00
C236   C     0.24471   0.73153   0.98430   0.00000  Uiso   1.00
H237   H     0.32093   0.81432   0.08180   0.00000  Uiso   1.00
H238   H     0.31789   0.83149   0.85950   0.00000  Uiso   1.00
H239   H     0.36599   0.87221   0.10129   0.00000  Uiso   1.00
H240   H     0.28104   0.76523   0.05798   0.00000  Uiso   1.00
H241   H     0.36246   0.89088   0.88022   0.00000  Uiso   1.00
C242   C     0.51533   0.90747  -0.00400   0.00000  Uiso   1.00
C243   C     0.49285   0.88001   0.03629   0.00000  Uiso   1.00
C244   C     0.49606   0.84859   0.03282   0.00000  Uiso   1.00
C245   C     0.52158   0.84398   0.98765   0.00000  Uiso   1.00
C246   C     0.54404   0.87162   0.94836   0.00000  Uiso   1.00
C247   C     0.54125   0.90314   0.95262   0.00000  Uiso   1.00
C248   C     0.50373   0.78295   0.00989   0.00000  Uiso   1.00
H249   H     0.54793   0.66184   0.92578   0.00000  Uiso   1.00
H250   H     0.53344   0.71155   0.93070   0.00000  Uiso   1.00
H251   H     0.46618   0.67180   0.11106   0.00000  Uiso   1.00
H252   H     0.48047   0.62142   0.10483   0.00000  Uiso   1.00
H253   H     0.53546   0.75873   0.97104   0.00000  Uiso   1.00
O254   O     0.48947   0.72453   0.03118   0.00000  Uiso   1.00
O255   O     0.52679   0.81344   0.97893   0.00000  Uiso   1.00
C256   C     0.51622   0.63833   1.01596   0.00000  Uiso   1.00
C257   C     0.53070   0.66416   0.96726   0.00000  Uiso   1.00
C258   C     0.52253   0.69307   0.97100   0.00000  Uiso   1.00
C259   C     0.49970   0.69665   0.02417   0.00000  Uiso   1.00
C260   C     0.48484   0.67030   0.07161   0.00000  Uiso   1.00
C261   C     0.49333   0.64168   0.06834   0.00000  Uiso   1.00
C262   C     0.51135   0.75553   0.00056   0.00000  Uiso   1.00
H263   H     0.47845   0.82863   0.06555   0.00000  Uiso   1.00
H264   H     0.56347   0.86836   0.91311   0.00000  Uiso   1.00
H265   H     0.47284   0.88293   0.07083   0.00000  Uiso   1.00
H266   H     0.48031   0.78057   0.04090   0.00000  Uiso   1.00
H267   H     0.55849   0.92369   0.92031   0.00000  Uiso   1.00
C268   C     0.48960   0.36724  -0.00194   0.00000  Uiso   1.00
C269   C     0.47639   0.34227   0.04886   0.00000  Uiso   1.00
C270   C     0.48635   0.31435   0.04831   0.00000  Uiso   1.00
C271   C     0.51084   0.31153  -0.00217   0.00000  Uiso   1.00
C272   C     0.52421   0.33696   0.94796   0.00000  Uiso   1.00
C273   C     0.51333   0.36418   0.94710   0.00000  Uiso   1.00
C274   C     0.50822   0.25645   0.03668   0.00000  Uiso   1.00
H275   H     0.52961   0.12391   0.93349   0.00000  Uiso   1.00
H276   H     0.53301   0.18070   0.95694   0.00000  Uiso   1.00
H277   H     0.45454   0.14251   0.12136   0.00000  Uiso   1.00
H278   H     0.45101   0.08442   0.09686   0.00000  Uiso   1.00
H279   H     0.52635   0.22676   0.97258   0.00000  Uiso   1.00
O280   O     0.49460   0.19880   0.06146   0.00000  Uiso   1.00
O281   O     0.52264   0.28452   0.99265   0.00000  Uiso   1.00
C282   C     0.48973   0.09964   0.01296   0.00000  Uiso   1.00
C283   C     0.51236   0.12748   0.97366   0.00000  Uiso   1.00
C284   C     0.51401   0.16038   0.98697   0.00000  Uiso   1.00
C285   C     0.49291   0.16624   0.04048   0.00000  Uiso   1.00
C286   C     0.46996   0.13825   0.07866   0.00000  Uiso   1.00
C287   C     0.46797   0.10519   0.06475   0.00000  Uiso   1.00
C288   C     0.51177   0.22745   0.01975   0.00000  Uiso   1.00
H289   H     0.47480   0.29586   0.08816   0.00000  Uiso   1.00
H290   H     0.54356   0.33575   0.90967   0.00000  Uiso   1.00
H291   H     0.45837   0.34436   0.08905   0.00000  Uiso   1.00
H292   H     0.49350   0.25684   0.08365   0.00000  Uiso   1.00
H293   H     0.52498   0.38369   0.90842   0.00000  Uiso   1.00
loop_
_geom_bond_atom_site_label_1
_geom_bond_atom_site_label_2
_geom_bond_distance
_geom_bond_site_symmetry_2
_ccdc_geom_bond_type
Pr0    O3      2.270   .     S
Pr0    O5      2.259   .     S
Pr0    O6      2.251   .     S
Pr0    O7      2.293   .     S
Pr0    O14     2.307   .     S
Pr0    O4      2.276   1_554 S
Pr0    O18     2.225   1_554 S
Pr1    O2      2.325   .     S
Pr1    O15     2.300   .     S
Pr1    O17     2.270   .     S
Pr1    O18     2.204   .     S
Pr1    O19     2.294   .     S
Pr1    O6      2.230   1_556 S
Pr1    O16     2.284   1_556 S
O2     C9      1.303   1_556 A
O3     C9      1.290   .     A
O4     C10     1.279   .     A
O4     Pr0     2.276   1_556 S
O5     C10     1.276   1_554 A
O6     C13     1.377   .     S
O6     Pr1     2.230   1_554 S
O7     C13     1.221   .     D
C8     O18     1.380   .     S
C8     O19     1.223   .     D
C8     C74     1.452   .     S
C9     O2      1.303   1_554 A
C9     C138    1.472   1_554 S
C10    C256    1.468   .     S
C10    O5      1.276   1_556 A
C11    O16     1.280   .     A
C11    C268    1.472   .     S
C11    O17     1.280   1_554 A
C12    O15     1.302   .     A
C12    O14     1.306   1_556 A
C12    C204    1.459   1_556 S
C13    C60     1.453   .     S
O14    C12     1.306   1_554 A
O16    Pr1     2.284   1_554 S
O17    C11     1.280   1_556 A
O18    Pr0     2.225   1_556 S
Pr20   O23     2.284   .     S
Pr20   O25     2.285   .     S
Pr20   O27     2.336   .     S
Pr20   O24     2.246   1_556 S
Pr20   O26     2.262   1_655 S
Pr20   O34     2.350   1_655 S
Pr20   O38     2.239   1_556 S
Pr21   O35     2.284   .     S
Pr21   O37     2.265   .     S
Pr21   O39     2.338   .     S
Pr21   O22     2.341   1_455 S
Pr21   O26     2.255   1_554 S
Pr21   O36     2.264   1_554 S
Pr21   O38     2.251   1_455 S
O22    Pr21    2.341   1_655 S
O22    C29     1.305   1_554 A
O23    C29     1.293   .     A
O24    C30     1.273   .     A
O24    Pr20    2.246   1_554 S
O25    C30     1.282   1_556 A
O26    Pr20    2.262   1_455 S
O26    Pr21    2.255   1_556 S
O26    C33     1.358   1_455 S
O27    C33     1.202   .     D
C28    O39     1.202   .     D
C28    C100    1.470   .     S
C28    O38     1.355   1_455 S
C29    C190    1.463   .     S
C29    O22     1.305   1_556 A
C30    C164    1.472   .     S
C30    O25     1.282   1_554 A
C31    O36     1.275   .     A
C31    C230    1.474   .     S
C31    O37     1.276   1_556 A
C32    O35     1.294   .     A
C32    C152    1.467   .     S
C32    O34     1.308   1_554 A
C33    C86     1.472   .     S
C33    O26     1.358   1_655 S
O34    Pr20    2.350   1_455 S
O34    C32     1.308   1_556 A
O36    Pr21    2.264   1_556 S
O37    C31     1.276   1_554 A
O38    Pr20    2.239   1_554 S
O38    Pr21    2.251   1_655 S
O38    C28     1.355   1_655 S
Pr40   O43     2.267   .     S
Pr40   O45     2.262   .     S
Pr40   O47     2.385   .     S
Pr40   O44     2.257   1_554 S
Pr40   O46     2.321   1_545 S
Pr40   O54     2.355   1_544 S
Pr40   O58     2.264   1_554 S
Pr41   O55     2.280   .     S
Pr41   O57     2.274   .     S
Pr41   O59     2.380   .     S
Pr41   O42     2.384   1_566 S
Pr41   O46     2.270   1_556 S
Pr41   O56     2.243   1_556 S
Pr41   O58     2.295   1_565 S
O42    C49     1.310   .     A
O42    Pr41    2.384   1_544 S
O43    C49     1.292   .     A
O44    C50     1.283   .     A
O44    Pr40    2.257   1_556 S
O45    C50     1.286   1_554 A
O46    Pr40    2.321   1_565 S
O46    Pr41    2.270   1_554 S
O46    C53     1.337   1_565 S
O47    C53     1.188   .     D
C48    O59     1.190   .     D
C48    C126    1.486   .     S
C48    O58     1.338   1_565 S
C49    C282    1.479   .     S
C50    C178    1.472   .     S
C50    O45     1.286   1_556 A
C51    O56     1.277   .     A
C51    C216    1.474   .     S
C51    O57     1.286   1_554 A
C52    O54     1.300   .     A
C52    O55     1.288   .     A
C52    C242    1.473   1_556 S
C53    C112    1.486   .     S
C53    O46     1.337   1_545 S
O54    Pr40    2.355   1_566 S
O56    Pr41    2.243   1_554 S
O57    C51     1.286   1_556 A
O58    Pr40    2.264   1_556 S
O58    Pr41    2.295   1_545 S
O58    C48     1.338   1_545 S
C60    C61     1.399   .     A
C60    C65     1.398   .     A
C61    C62     1.391   .     A
C61    H83     1.084   .     S
C62    C63     1.413   .     A
C62    H81     1.077   .     S
C63    C64     1.399   .     A
C63    O73     1.401   .     S
C64    C65     1.391   .     A
C64    H82     1.082   .     S
C65    H85     1.082   .     S
C66    O73     1.399   .     S
C66    C80     1.321   .     D
C66    H84     1.083   .     S
H67    C75     1.084   .     S
H68    C76     1.075   .     S
H69    C78     1.084   .     S
H70    C79     1.085   .     S
H71    C80     1.080   .     S
O72    C77     1.402   .     S
O72    C80     1.398   .     S
C74    C75     1.396   .     A
C74    C79     1.398   .     A
C75    C76     1.394   .     A
C76    C77     1.417   .     A
C77    C78     1.398   .     A
C78    C79     1.390   .     A
C86    C87     1.404   .     A
C86    C91     1.401   1_655 A
C87    C88     1.401   .     A
C87    H109    1.084   .     S
C88    H107    1.079   .     S
C88    C89     1.414   1_655 A
C89    C90     1.401   .     A
C89    O99     1.411   .     S
C89    C88     1.414   1_455 A
C90    C91     1.395   .     A
C90    H108    1.082   .     S
C91    H111    1.083   .     S
C91    C86     1.401   1_455 A
C92    H110    1.084   .     S
C92    O99     1.407   1_655 S
C92    C106    1.337   1_655 D
H93    C101    1.084   .     S
H94    C102    1.078   .     S
H95    C104    1.082   .     S
H96    C105    1.083   .     S
H97    C106    1.083   .     S
O98    C103    1.413   .     S
O98    C106    1.408   1_655 S
O99    C92     1.407   1_455 S
C100   C101    1.401   .     A
C100   C105    1.401   1_455 A
C101   C102    1.399   .     A
C102   C103    1.416   1_455 A
C103   C104    1.402   .     A
C103   C102    1.416   1_655 A
C104   C105    1.396   .     A
C105   C100    1.401   1_655 A
C106   C92     1.337   1_455 D
C106   O98     1.408   1_455 S
C112   C113    1.408   .     A
C112   C117    1.403   1_545 A
C113   C114    1.409   .     A
C113   H135    1.084   .     S
C114   H133    1.079   .     S
C114   C115    1.415   1_545 A
C115   C116    1.402   .     A
C115   O125    1.417   .     S
C115   C114    1.415   1_565 A
C116   C117    1.398   .     A
C116   H134    1.083   .     S
C117   H137    1.083   .     S
C117   C112    1.403   1_565 A
C118   H136    1.083   .     S
C118   O125    1.411   1_545 S
C118   C132    1.346   1_545 D
H119   C127    1.084   .     S
H120   C128    1.078   .     S
H121   C130    1.083   .     S
H122   C131    1.085   .     S
H123   C132    1.082   .     S
O124   C129    1.419   .     S
O124   C132    1.412   1_545 S
O125   C118    1.411   1_565 S
C126   C127    1.406   .     A
C126   C131    1.406   1_565 A
C127   C128    1.408   .     A
C128   C129    1.415   1_565 A
C129   C130    1.402   .     A
C129   C128    1.415   1_545 A
C130   C131    1.401   .     A
C131   C126    1.406   1_545 A
C132   C118    1.346   1_565 D
C132   O124    1.412   1_565 S
C138   C139    1.402   .     A
C138   C143    1.403   1_556 A
C138   C9      1.472   1_556 S
C139   C140    1.405   .     A
C139   H161    1.083   .     S
C140   H159    1.077   .     S
C140   C141    1.417   1_556 A
C141   C142    1.397   .     A
C141   O151    1.410   .     S
C141   C140    1.417   1_554 A
C142   C143    1.394   .     A
C142   H160    1.083   .     S
C143   H163    1.081   .     S
C143   C138    1.403   1_554 A
C144   H162    1.080   .     S
C144   O151    1.403   1_556 S
C144   C158    1.333   1_556 D
H145   C153    1.084   .     S
H146   C154    1.078   .     S
H147   C156    1.083   .     S
H148   C157    1.083   .     S
H149   C158    1.081   .     S
O150   C155    1.412   .     S
O150   C158    1.405   1_556 S
O151   C144    1.403   1_554 S
C152   C153    1.403   .     A
C152   C157    1.400   1_554 A
C153   C154    1.399   .     A
C154   C155    1.415   1_554 A
C155   C156    1.401   .     A
C155   C154    1.415   1_556 A
C156   C157    1.397   .     A
C157   C152    1.400   1_556 A
C158   C144    1.333   1_554 D
C158   O150    1.405   1_554 S
C164   C169    1.406   .     A
C164   C165    1.400   1_554 A
C165   C166    1.404   .     A
C165   H187    1.084   .     S
C165   C164    1.400   1_556 A
C166   C167    1.421   .     A
C166   H185    1.077   .     S
C167   O177    1.414   .     S
C167   C168    1.397   1_556 A
C168   C169    1.394   .     A
C168   H186    1.083   .     S
C168   C167    1.397   1_554 A
C169   H189    1.085   .     S
C170   O177    1.402   .     S
C170   C184    1.334   .     D
C170   H188    1.081   .     S
H171   C179    1.084   .     S
H172   C180    1.080   .     S
H173   C182    1.084   .     S
H174   C183    1.083   .     S
H175   C184    1.085   .     S
O176   C181    1.406   .     S
O176   C184    1.402   .     S
C178   C183    1.401   .     A
C178   C179    1.406   1_556 A
C179   C180    1.404   .     A
C179   C178    1.406   1_554 A
C180   C181    1.414   1_554 A
C181   C182    1.398   .     A
C181   C180    1.414   1_556 A
C182   C183    1.394   .     A
C190   C191    1.397   .     A
C190   C195    1.402   1_556 A
C191   C192    1.402   .     A
C191   H213    1.082   .     S
C192   H211    1.077   .     S
C192   C193    1.420   1_556 A
C193   C194    1.398   .     A
C193   O203    1.410   .     S
C193   C192    1.420   1_554 A
C194   C195    1.391   .     A
C194   H212    1.084   .     S
C195   H215    1.084   .     S
C195   C190    1.402   1_554 A
C196   H214    1.080   .     S
C196   O203    1.401   1_556 S
C196   C210    1.330   1_556 D
H197   C205    1.083   .     S
H198   C206    1.079   .     S
H199   C208    1.083   .     S
H200   C209    1.083   .     S
H201   C210    1.083   .     S
O202   C207    1.407   .     S
O202   C210    1.402   1_556 S
O203   C196    1.401   1_554 S
C204   C205    1.398   .     A
C204   C209    1.396   1_554 A
C204   C12     1.459   1_554 S
C205   C206    1.397   .     A
C206   C207    1.416   1_554 A
C207   C208    1.402   .     A
C207   C206    1.416   1_556 A
C208   C209    1.394   .     A
C209   C204    1.396   1_556 A
C210   C196    1.330   1_554 D
C210   O202    1.402   1_554 S
C216   C217    1.404   .     A
C216   C221    1.402   1_554 A
C217   C218    1.400   .     A
C217   H239    1.083   .     S
C218   H237    1.075   .     S
C218   C219    1.412   1_554 A
C219   C220    1.403   .     A
C219   O229    1.413   .     S
C219   C218    1.412   1_556 A
C220   C221    1.401   .     A
C220   H238    1.084   .     S
C221   H241    1.083   .     S
C221   C216    1.402   1_556 A
C222   H240    1.081   .     S
C222   O229    1.408   1_554 S
C222   C236    1.334   1_554 D
H223   C231    1.084   .     S
H224   C232    1.076   .     S
H225   C234    1.084   .     S
H226   C235    1.083   .     S
H227   C236    1.079   .     S
O228   C233    1.414   .     S
O228   C236    1.408   1_554 S
O229   C222    1.408   1_556 S
C230   C231    1.401   .     A
C230   C235    1.404   1_556 A
C231   C232    1.400   .     A
C232   C233    1.416   1_556 A
C233   C234    1.401   .     A
C233   C232    1.416   1_554 A
C234   C235    1.398   .     A
C235   C230    1.404   1_554 A
C236   C222    1.334   1_556 D
C236   O228    1.408   1_556 S
C242   C243    1.407   .     A
C242   C247    1.399   1_554 A
C242   C52     1.473   1_554 S
C243   C244    1.399   .     A
C243   H265    1.085   .     S
C244   H263    1.078   .     S
C244   C245    1.412   1_554 A
C245   C246    1.401   .     A
C245   O255    1.408   .     S
C245   C244    1.412   1_556 A
C246   C247    1.396   .     A
C246   H264    1.081   .     S
C247   H267    1.082   .     S
C247   C242    1.399   1_556 A
C248   C262    1.333   .     D
C248   H266    1.083   .     S
C248   O255    1.405   1_554 S
H249   C257    1.083   .     S
H250   C258    1.078   .     S
H251   C260    1.083   .     S
H252   C261    1.084   .     S
H253   C262    1.083   1_556 S
O254   C259    1.411   .     S
O254   C262    1.404   .     S
O255   C248    1.405   1_556 S
C256   C257    1.400   .     A
C256   C261    1.404   1_556 A
C257   C258    1.399   .     A
C258   C259    1.417   1_556 A
C259   C260    1.399   .     A
C259   C258    1.417   1_554 A
C260   C261    1.395   .     A
C261   C256    1.404   1_554 A
C262   H253    1.083   1_554 S
C268   C269    1.400   .     A
C268   C273    1.405   1_554 A
C269   C270    1.401   .     A
C269   H291    1.084   .     S
C270   C271    1.417   .     A
C270   H289    1.075   .     S
C271   C272    1.400   1_554 A
C271   O281    1.413   1_554 S
C272   C273    1.396   .     A
C272   H290    1.084   .     S
C272   C271    1.400   1_556 A
C273   H293    1.085   .     S
C273   C268    1.405   1_556 A
C274   C288    1.335   .     D
C274   H292    1.080   .     S
C274   O281    1.406   1_554 S
H275   C283    1.084   .     S
H276   C284    1.076   .     S
H277   C286    1.081   .     S
H278   C287    1.082   .     S
H279   C288    1.083   1_556 S
O280   C285    1.412   .     S
O280   C288    1.408   .     S
O281   C271    1.413   1_556 S
O281   C274    1.406   1_556 S
C282   C287    1.400   .     A
C282   C283    1.408   1_554 A
C283   C284    1.397   .     A
C283   C282    1.408   1_556 A
C284   C285    1.411   1_556 A
C285   C286    1.404   .     A
C285   C284    1.411   1_554 A
C286   C287    1.400   .     A
C288   H279    1.083   1_554 S
