data_kag+N123+E220
_audit_creation_date              2025-01-21
_audit_creation_method            'Materials Studio'
_symmetry_space_group_name_H-M    'P1'
_symmetry_Int_Tables_number       1
_symmetry_cell_setting            triclinic
loop_
_symmetry_equiv_pos_as_xyz
  x,y,z
_cell_length_a                    27.0154
_cell_length_b                    25.3369
_cell_length_c                    10.6645
_cell_angle_alpha                 99.7205
_cell_angle_beta                  90.9453
_cell_angle_gamma                 128.0576
loop_
_atom_site_label
_atom_site_type_symbol
_atom_site_fract_x
_atom_site_fract_y
_atom_site_fract_z
_atom_site_U_iso_or_equiv
_atom_site_adp_type
_atom_site_occupancy
Ce0    Ce    0.57686   0.53902   0.03540   0.00000  Uiso   1.00
Ce1    Ce    0.43811   0.47305   1.00871   0.00000  Uiso   1.00
C2     C     0.47131   0.50547   0.26577   0.00000  Uiso   1.00
C3     C     0.69681   0.58439   0.02449   0.00000  Uiso   1.00
C4     C     0.53769   0.63566   1.00841   0.00000  Uiso   1.00
C5     C     0.54204   0.51416   0.78200   0.00000  Uiso   1.00
C6     C     0.31597   0.42203   1.00130   0.00000  Uiso   1.00
C7     C     0.47633   0.37569   0.03126   0.00000  Uiso   1.00
O8     O     0.41664   0.47627   0.21635   0.00000  Uiso   1.00
O9     O     0.51428   0.52976   0.17963   0.00000  Uiso   1.00
O10    O     0.67860   0.59218   0.13120   0.00000  Uiso   1.00
O11    O     0.65585   0.55970   0.92484   0.00000  Uiso   1.00
O12    O     0.58531   0.63536   1.02585   0.00000  Uiso   1.00
O13    O     0.47850   0.58241   1.00078   0.00000  Uiso   1.00
O14    O     0.59719   0.54426   0.82853   0.00000  Uiso   1.00
O15    O     0.49918   0.47904   0.86352   0.00000  Uiso   1.00
O16    O     0.33900   0.41683   0.90033   0.00000  Uiso   1.00
O17    O     0.35469   0.45024   0.10673   0.00000  Uiso   1.00
O18    O     0.42936   0.37755   0.02364   0.00000  Uiso   1.00
O19    O     0.53554   0.42776   0.03357   0.00000  Uiso   1.00
Ce20   Ce    0.04265   0.47430  -0.02076   0.00000  Uiso   1.00
Ce21   Ce    0.97608   0.53410  -0.00489   0.00000  Uiso   1.00
C22    C     0.97377   0.50668   0.73958   0.00000  Uiso   1.00
C23    C     0.10746   0.42550   0.98145   0.00000  Uiso   1.00
C24    C     0.88949   0.36877  -0.03522   0.00000  Uiso   1.00
C25    C     0.02783   0.48820   0.22617   0.00000  Uiso   1.00
C26    C     0.90345   0.57394  -0.00277   0.00000  Uiso   1.00
C27    C     0.12997   0.64024   1.01039   0.00000  Uiso   1.00
O28    O     0.94853   0.53045   0.78776   0.00000  Uiso   1.00
O29    O     1.00121   0.49345   0.82721   0.00000  Uiso   1.00
O30    O     0.08408   0.42636   0.87722   0.00000  Uiso   1.00
O31    O     0.09455   0.44589   0.08438   0.00000  Uiso   1.00
O32    O     0.93998   0.37353  -0.03984   0.00000  Uiso   1.00
O33    O     0.88976   0.42069  -0.02028   0.00000  Uiso   1.00
O34    O     0.04959   0.45970   0.18307   0.00000  Uiso   1.00
O35    O     0.02739   0.52590   0.14709   0.00000  Uiso   1.00
O36    O     0.93104   0.57731   0.10062   0.00000  Uiso   1.00
O37    O     0.91822   0.55669   0.89344   0.00000  Uiso   1.00
O38    O     0.07886   0.63531   1.00471   0.00000  Uiso   1.00
O39    O     0.12940   0.58821   1.00598   0.00000  Uiso   1.00
Ce40   Ce    0.53251   0.96314   1.00967   0.00000  Uiso   1.00
Ce41   Ce    0.49424   0.05779   0.01337   0.00000  Uiso   1.00
C42    C     0.49844   0.02305   0.24709   0.00000  Uiso   1.00
C43    C     0.55483   0.87220   0.99143   0.00000  Uiso   1.00
C44    C     0.64221   0.12318   0.98806   0.00000  Uiso   1.00
C45    C     0.52461   0.99470   0.77395   0.00000  Uiso   1.00
C46    C     0.46558   0.14322   0.02724   0.00000  Uiso   1.00
C47    C     0.38307   0.89609   0.02720   0.00000  Uiso   1.00
O48    O     0.45511   0.01926   0.19979   0.00000  Uiso   1.00
O49    O     0.54398   0.04462   0.16648   0.00000  Uiso   1.00
O50    O     0.57375   0.91802   0.09446   0.00000  Uiso   1.00
O51    O     0.53043   0.87748   0.89597   0.00000  Uiso   1.00
O52    O     0.63025   0.06544   0.99495   0.00000  Uiso   1.00
O53    O     0.60040   0.13325  -0.01021   0.00000  Uiso   1.00
O54    O     0.56755   0.99699   0.81721   0.00000  Uiso   1.00
O55    O     0.48113   0.97532   0.85837   0.00000  Uiso   1.00
O56    O     0.44983   0.09838   0.92472   0.00000  Uiso   1.00
O57    O     0.49364   0.14242   0.12341   0.00000  Uiso   1.00
O58    O     0.39613   0.95519   0.02917   0.00000  Uiso   1.00
O59    O     0.42542   0.88688   1.02143   0.00000  Uiso   1.00
C60    C     0.48998   0.51454   0.40265   0.00000  Uiso   1.00
C61    C     0.55492   0.55749   0.45835   0.00000  Uiso   1.00
C62    C     0.57101   0.55482   0.58074   0.00000  Uiso   1.00
C63    C     0.52373   0.51260   0.65100   0.00000  Uiso   1.00
C64    C     0.45947   0.47263   0.59845   0.00000  Uiso   1.00
C65    C     0.44271   0.47330   0.47481   0.00000  Uiso   1.00
O66    O     0.60426   0.64946   0.35139   0.00000  Uiso   1.00
O67    O     0.65651   0.61033   0.39515   0.00000  Uiso   1.00
N68    N     0.60514   0.60465   0.39357   0.00000  Uiso   1.00
H69    H     0.42217   0.44036   0.65232   0.00000  Uiso   1.00
H70    H     0.39270   0.43984   0.43408   0.00000  Uiso   1.00
H71    H     0.62081   0.58754   0.62282   0.00000  Uiso   1.00
C72    C    -0.02108   0.49528   0.60235   0.00000  Uiso   1.00
C73    C     0.96362   0.52014   0.51270   0.00000  Uiso   1.00
C74    C     0.98033   0.51769   0.38994   0.00000  Uiso   1.00
C75    C     0.01026   0.48914   0.35429   0.00000  Uiso   1.00
C76    C     0.02226   0.46123   0.44049   0.00000  Uiso   1.00
C77    C     0.00706   0.46464   0.56366   0.00000  Uiso   1.00
O78    O     0.94515   0.59989   0.50780   0.00000  Uiso   1.00
O79    O     0.87200   0.50295   0.57118   0.00000  Uiso   1.00
N80    N     0.92861   0.54468   0.54198   0.00000  Uiso   1.00
H81    H     0.04472   0.43821   0.41372   0.00000  Uiso   1.00
H82    H     0.01895   0.44458   0.62997   0.00000  Uiso   1.00
H83    H     0.96869   0.53695   0.32132   0.00000  Uiso   1.00
C84    C     0.50380   0.01359   0.38098   0.00000  Uiso   1.00
C85    C     0.45088   0.98126   0.44852   0.00000  Uiso   1.00
C86    C     0.45855   0.97758   0.57744   0.00000  Uiso   1.00
C87    C     0.51793   0.00407   0.64129   0.00000  Uiso   1.00
C88    C     0.57002   0.03487   0.57317   0.00000  Uiso   1.00
C89    C     0.56312   0.03980   0.44542   0.00000  Uiso   1.00
O90    O     0.34980   0.87850   0.34959   0.00000  Uiso   1.00
O91    O     0.36501   0.97797   0.37896   0.00000  Uiso   1.00
N92    N     0.38780   0.94549   0.38374   0.00000  Uiso   1.00
H93    H     0.61646   0.05539   0.61890   0.00000  Uiso   1.00
H94    H     0.60465   0.06487   0.39734   0.00000  Uiso   1.00
H95    H     0.41712   0.95120   0.62565   0.00000  Uiso   1.00
C96    C     0.25206   0.40362   0.99481   0.00000  Uiso   1.00
C97    C     0.22486   0.40449   0.10694   0.00000  Uiso   1.00
C98    C     0.17474   0.40769   0.10034   0.00000  Uiso   1.00
C99    C     0.15021   0.40783  -0.01648   0.00000  Uiso   1.00
C100   C     0.17283   0.39941   0.87089   0.00000  Uiso   1.00
C101   C     0.22322   0.39739   0.87645   0.00000  Uiso   1.00
O102   O     0.25064   0.43929   0.33508   0.00000  Uiso   1.00
O103   O     0.26025   0.36162   0.23308   0.00000  Uiso   1.00
N104   N     0.24835   0.40386   0.22806   0.00000  Uiso   1.00
H105   H     0.15451   0.39919   0.77947   0.00000  Uiso   1.00
H106   H     0.24262   0.39612   0.78896   0.00000  Uiso   1.00
H107   H     0.15602   0.41190   0.18714   0.00000  Uiso   1.00
C108   C     0.82790   0.30073  -0.04330   0.00000  Uiso   1.00
C109   C     0.77671   0.26955   0.85543   0.00000  Uiso   1.00
C110   C     0.71630   0.20999   0.86653   0.00000  Uiso   1.00
C111   C     0.70688   0.18072   0.97280   0.00000  Uiso   1.00
C112   C     0.75862   0.20888   0.06682   0.00000  Uiso   1.00
C113   C     0.81859   0.26878   0.05928   0.00000  Uiso   1.00
O114   O     0.74260   0.25467   0.63585   0.00000  Uiso   1.00
O115   O     0.83201   0.35786  -0.26428   0.00000  Uiso   1.00
N116   N     0.78501   0.29443   0.73896   0.00000  Uiso   1.00
H117   H     0.75194   0.18670   0.14948   0.00000  Uiso   1.00
H118   H     0.85730   0.29215   0.13715   0.00000  Uiso   1.00
H119   H     0.67603   0.18629   0.79242   0.00000  Uiso   1.00
C120   C     0.85495   0.58423   0.99816   0.00000  Uiso   1.00
C121   C     0.80794   0.55574   0.88942   0.00000  Uiso   1.00
C122   C     0.76109   0.56360   0.89808   0.00000  Uiso   1.00
C123   C     0.75635   0.59423   0.01437   0.00000  Uiso   1.00
C124   C     0.80291   0.62289   0.12165   0.00000  Uiso   1.00
C125   C     0.85222   0.61872   0.11297   0.00000  Uiso   1.00
O126   O     0.79863   0.46026   0.77854   0.00000  Uiso   1.00
O127   O     0.78253   0.51584   0.66383   0.00000  Uiso   1.00
N128   N     0.80281   0.51375   0.77290   0.00000  Uiso   1.00
H129   H     0.80010   0.64655   0.21296   0.00000  Uiso   1.00
H130   H     0.88696   0.64032   0.19796   0.00000  Uiso   1.00
H131   H     0.72435   0.53959   0.81559   0.00000  Uiso   1.00
C132   C     0.31693   0.83471   0.03433   0.00000  Uiso   1.00
C133   C     0.26212   0.83054   1.01686   0.00000  Uiso   1.00
C134   C     0.20102   0.76710   1.00981   0.00000  Uiso   1.00
C135   C     0.19350   0.70833   1.02269   0.00000  Uiso   1.00
C136   C     0.24805   0.71417   0.04620   0.00000  Uiso   1.00
C137   C     0.30825   0.77581   0.05180   0.00000  Uiso   1.00
O138   O     0.22913   0.88274   0.91672   0.00000  Uiso   1.00
O139   O     0.29686   0.94261   0.10229   0.00000  Uiso   1.00
N140   N     0.26695   0.88916   1.00618   0.00000  Uiso   1.00
H141   H     0.24450   0.67048   0.05858   0.00000  Uiso   1.00
H142   H     0.34834   0.77652   0.06829   0.00000  Uiso   1.00
H143   H     0.15943   0.76383   0.99410   0.00000  Uiso   1.00
C144   C     0.55539   0.81381   0.98538   0.00000  Uiso   1.00
C145   C     0.50732   0.74885   0.90279   0.00000  Uiso   1.00
C146   C     0.50554   0.69289   0.90679   0.00000  Uiso   1.00
C147   C     0.54936   0.69911   0.99323   0.00000  Uiso   1.00
C148   C     0.59845   0.76384   0.07151   0.00000  Uiso   1.00
C149   C     0.60123   0.82077   0.06803   0.00000  Uiso   1.00
O150   O     0.43759   0.69993   0.70626   0.00000  Uiso   1.00
O151   O     0.41990   0.74836   0.87633   0.00000  Uiso   1.00
N152   N     0.45641   0.73680   0.82337   0.00000  Uiso   1.00
H153   H     0.63265   0.76966   0.13930   0.00000  Uiso   1.00
H154   H     0.63836   0.86995   0.13211   0.00000  Uiso   1.00
H155   H     0.46742   0.64301   0.84614   0.00000  Uiso   1.00
C156   C     0.46263   0.31051   0.03646   0.00000  Uiso   1.00
C157   C     0.47428   0.29796   0.15344   0.00000  Uiso   1.00
C158   C     0.47040   0.23980   0.14984   0.00000  Uiso   1.00
C159   C     0.45639   0.19518   0.03218   0.00000  Uiso   1.00
C160   C     0.44107   0.20594   0.91805   0.00000  Uiso   1.00
C161   C     0.44407   0.26312   0.92027   0.00000  Uiso   1.00
O162   O     0.47374   0.32123   0.37845   0.00000  Uiso   1.00
O163   O     0.53651   0.41091   0.28734   0.00000  Uiso   1.00
N164   N     0.49267   0.34483   0.27514   0.00000  Uiso   1.00
H165   H     0.43004   0.17231   0.82621   0.00000  Uiso   1.00
H166   H     0.43512   0.27240   0.83020   0.00000  Uiso   1.00
H167   H     0.48232   0.23194   0.23871   0.00000  Uiso   1.00
loop_
_geom_bond_atom_site_label_1
_geom_bond_atom_site_label_2
_geom_bond_distance
_geom_bond_site_symmetry_2
_ccdc_geom_bond_type
Ce0    O9      2.236   .     S
Ce0    O10     2.300   .     S
Ce0    O19     2.301   .     S
Ce0    O11     2.265   1_554 S
Ce0    O12     2.328   1_554 S
Ce0    O14     2.288   1_554 S
Ce0    O15     2.252   1_554 S
Ce1    O13     2.287   .     S
Ce1    O15     2.236   .     S
Ce1    O16     2.275   .     S
Ce1    O8      2.299   1_556 S
Ce1    O9      2.229   1_556 S
Ce1    O17     2.276   1_556 S
Ce1    O18     2.316   1_556 S
C2     O8      1.226   .     D
C2     O9      1.384   .     S
C2     C60     1.469   .     S
C3     O10     1.280   .     A
C3     C123    1.477   .     S
C3     O11     1.276   1_554 A
C4     O12     1.302   .     A
C4     O13     1.297   .     A
C4     C147    1.475   .     S
C5     O14     1.223   .     D
C5     O15     1.383   .     S
C5     C63     1.460   .     S
C6     O16     1.280   .     A
C6     C96     1.482   .     S
C6     O17     1.280   1_556 A
C7     O18     1.300   .     A
C7     O19     1.298   .     A
C7     C156    1.465   .     S
O8     Ce1     2.299   1_554 S
O9     Ce1     2.229   1_554 S
O11    Ce0     2.265   1_556 S
O11    C3      1.276   1_556 A
O12    Ce0     2.328   1_556 S
O14    Ce0     2.288   1_556 S
O15    Ce0     2.252   1_556 S
O17    Ce1     2.276   1_554 S
O17    C6      1.280   1_554 A
O18    Ce1     2.316   1_554 S
Ce20   O31     2.282   .     S
Ce20   O34     2.289   .     S
Ce20   O35     2.232   .     S
Ce20   O29     2.234   1_454 S
Ce20   O30     2.276   1_554 S
Ce20   O32     2.308   1_455 S
Ce20   O39     2.294   1_554 S
Ce21   O33     2.300   .     S
Ce21   O36     2.284   .     S
Ce21   O28     2.290   1_554 S
Ce21   O29     2.238   1_554 S
Ce21   O35     2.233   1_655 S
Ce21   O37     2.281   1_554 S
Ce21   O38     2.328   1_654 S
C22    O28     1.227   .     D
C22    O29     1.387   .     S
C22    C72     1.469   1_655 S
C23    O30     1.279   .     A
C23    O31     1.279   1_556 A
C23    C99     1.475   1_556 S
C24    O32     1.296   .     A
C24    O33     1.294   .     A
C24    C108    1.468   .     S
C25    O34     1.224   .     D
C25    O35     1.382   .     S
C25    C75     1.455   .     S
C26    O36     1.281   .     A
C26    O37     1.281   1_554 A
C26    C120    1.485   1_554 S
C27    O38     1.307   .     A
C27    O39     1.302   .     A
C27    C135    1.485   .     S
O28    Ce21    2.290   1_556 S
O29    Ce20    2.234   1_656 S
O29    Ce21    2.238   1_556 S
O30    Ce20    2.276   1_556 S
O31    C23     1.279   1_554 A
O32    Ce20    2.308   1_655 S
O35    Ce21    2.233   1_455 S
O37    Ce21    2.281   1_556 S
O37    C26     1.281   1_556 A
O38    Ce21    2.328   1_456 S
O39    Ce20    2.294   1_556 S
Ce40   O51     2.268   .     S
Ce40   O54     2.345   .     S
Ce40   O55     2.291   .     S
Ce40   O59     2.307   .     S
Ce40   O49     2.277   1_566 S
Ce40   O50     2.292   1_556 S
Ce40   O52     2.330   1_565 S
Ce41   O48     2.340   .     S
Ce41   O49     2.291   .     S
Ce41   O53     2.317   .     S
Ce41   O57     2.273   .     S
Ce41   O55     2.264   1_544 S
Ce41   O56     2.281   1_554 S
Ce41   O58     2.341   1_545 S
C42    O48     1.208   .     D
C42    O49     1.384   .     S
C42    C84     1.506   .     S
C43    O51     1.273   .     A
C43    C144    1.479   .     S
C43    O50     1.279   1_556 A
C44    O52     1.305   .     A
C44    C111    1.467   .     S
C44    O53     1.302   1_556 A
C45    O54     1.205   .     D
C45    O55     1.380   .     S
C45    C87     1.499   1_565 S
C46    O57     1.276   .     A
C46    C159    1.476   .     S
C46    O56     1.279   1_554 A
C47    O58     1.306   .     A
C47    C132    1.495   .     S
C47    O59     1.302   1_554 A
O49    Ce40    2.277   1_544 S
O50    Ce40    2.292   1_554 S
O50    C43     1.279   1_554 A
O52    Ce40    2.330   1_545 S
O53    C44     1.302   1_554 A
O55    Ce41    2.264   1_566 S
O56    Ce41    2.281   1_556 S
O56    C46     1.279   1_556 A
O58    Ce41    2.341   1_565 S
O59    C47     1.302   1_556 A
C60    C61     1.417   .     A
C60    C65     1.405   .     A
C61    C62     1.394   .     A
C61    N68     1.434   .     S
C62    C63     1.398   .     A
C62    H71     1.085   .     S
C63    C64     1.401   .     A
C64    C65     1.393   .     A
C64    H69     1.084   .     S
C65    H70     1.085   .     S
O66    N68     1.303   .     A
O67    N68     1.304   .     A
C72    C77     1.407   .     A
C72    C73     1.412   1_455 A
C72    C22     1.469   1_455 S
C73    C74     1.396   .     A
C73    N80     1.431   .     S
C73    C72     1.412   1_655 A
C74    H83     1.084   .     S
C74    C75     1.400   1_655 A
C75    C76     1.394   .     A
C75    C74     1.400   1_455 A
C76    C77     1.387   .     A
C76    H81     1.084   .     S
C77    H82     1.085   .     S
O78    N80     1.302   .     A
O79    N80     1.299   .     A
C84    C89     1.407   .     A
C84    C85     1.422   1_545 A
C85    C86     1.414   .     A
C85    N92     1.431   .     S
C85    C84     1.422   1_565 A
C86    H95     1.085   .     S
C86    C87     1.404   1_565 A
C87    C88     1.410   .     A
C87    C86     1.404   1_545 A
C87    C45     1.499   1_545 S
C88    C89     1.409   .     A
C88    H93     1.083   .     S
C89    H94     1.084   .     S
O90    N92     1.303   .     A
O91    N92     1.303   .     A
C96    C101    1.405   .     A
C96    C97     1.418   1_556 A
C97    C98     1.407   .     A
C97    N104    1.437   .     S
C97    C96     1.418   1_554 A
C98    C99     1.403   .     A
C98    H107    1.083   .     S
C99    C100    1.400   1_554 A
C99    C23     1.475   1_554 S
C100   C101    1.394   .     A
C100   H105    1.084   .     S
C100   C99     1.400   1_556 A
C101   H106    1.083   .     S
O102   N104    1.302   .     A
O103   N104    1.302   .     A
C108   C113    1.404   .     A
C108   C109    1.421   1_554 A
C109   C110    1.409   .     A
C109   N116    1.446   .     S
C109   C108    1.421   1_556 A
C110   C111    1.400   .     A
C110   H119    1.084   .     S
C111   C112    1.397   1_556 A
C112   C113    1.396   .     A
C112   H117    1.083   .     S
C112   C111    1.397   1_554 A
C113   H118    1.084   .     S
O114   N116    1.303   .     A
O115   N116    1.304   1_554 A
N116   O115    1.304   1_556 A
C120   C121    1.420   .     A
C120   C125    1.410   1_556 A
C120   C26     1.485   1_556 S
C121   C122    1.399   .     A
C121   N128    1.436   .     S
C122   H131    1.084   .     S
C122   C123    1.400   1_556 A
C123   C124    1.402   .     A
C123   C122    1.400   1_554 A
C124   C125    1.403   .     A
C124   H129    1.084   .     S
C125   H130    1.083   .     S
C125   C120    1.410   1_554 A
O126   N128    1.301   .     A
O127   N128    1.301   .     A
C132   C137    1.407   .     A
C132   C133    1.425   1_554 A
C133   C134    1.413   .     A
C133   N140    1.434   .     S
C133   C132    1.425   1_556 A
C134   C135    1.405   .     A
C134   H143    1.082   .     S
C135   C136    1.401   1_556 A
C136   C137    1.386   .     A
C136   H141    1.082   .     S
C136   C135    1.401   1_554 A
C137   H142    1.083   .     S
O138   N140    1.300   .     A
O139   N140    1.301   1_554 A
N140   O139    1.301   1_556 A
C144   C145    1.417   .     A
C144   C149    1.408   1_556 A
C145   C146    1.397   .     A
C145   N152    1.435   .     S
C146   C147    1.400   .     A
C146   H155    1.083   .     S
C147   C148    1.402   1_556 A
C148   C149    1.404   .     A
C148   H153    1.083   .     S
C148   C147    1.402   1_554 A
C149   H154    1.084   .     S
C149   C144    1.408   1_554 A
O150   N152    1.300   .     A
O151   N152    1.302   .     A
C156   C157    1.414   .     A
C156   C161    1.401   1_554 A
C157   C158    1.405   .     A
C157   N164    1.439   .     S
C158   C159    1.405   .     A
C158   H167    1.084   .     S
C159   C160    1.401   1_554 A
C160   C161    1.396   .     A
C160   H165    1.082   .     S
C160   C159    1.401   1_556 A
C161   H166    1.084   .     S
C161   C156    1.401   1_556 A
O162   N164    1.303   .     A
O163   N164    1.304   .     A
