data_kag+N123+E70
_audit_creation_date              2025-01-21
_audit_creation_method            'Materials Studio'
_symmetry_space_group_name_H-M    'P1'
_symmetry_Int_Tables_number       1
_symmetry_cell_setting            triclinic
loop_
_symmetry_equiv_pos_as_xyz
  x,y,z
_cell_length_a                    25.5862
_cell_length_b                    23.6902
_cell_length_c                    9.3717
_cell_angle_alpha                 101.1496
_cell_angle_beta                  91.4930
_cell_angle_gamma                 129.4123
loop_
_atom_site_label
_atom_site_type_symbol
_atom_site_fract_x
_atom_site_fract_y
_atom_site_fract_z
_atom_site_U_iso_or_equiv
_atom_site_adp_type
_atom_site_occupancy
Ce0    Ce    0.58015   0.52771  -0.00312   0.00000  Uiso   1.00
Ce1    Ce    0.43151   0.46722   0.92596   0.00000  Uiso   1.00
C2     C     0.47252   0.50975   0.22468   0.00000  Uiso   1.00
C3     C     0.70778   0.58003   0.07453   0.00000  Uiso   1.00
C4     C     0.55239   0.65008   1.00451   0.00000  Uiso   1.00
C5     C     0.55078   0.55116   0.74470   0.00000  Uiso   1.00
C6     C     0.30112   0.41214   0.93179   0.00000  Uiso   1.00
C7     C     0.45704   0.35109  -0.02635   0.00000  Uiso   1.00
O8     O     0.41152   0.46589   0.16759   0.00000  Uiso   1.00
O9     O     0.51402   0.53885   0.12405   0.00000  Uiso   1.00
O10    O     0.67665   0.58955   0.16746   0.00000  Uiso   1.00
O11    O     0.67477   0.54591   0.94005   0.00000  Uiso   1.00
O12    O     0.59735   0.64046   1.01968   0.00000  Uiso   1.00
O13    O     0.48606   0.59447   0.96047   0.00000  Uiso   1.00
O14    O     0.60313   0.60006   0.83958   0.00000  Uiso   1.00
O15    O     0.50703   0.48178   0.77797   0.00000  Uiso   1.00
O16    O     0.32193   0.40997   0.81032   0.00000  Uiso   1.00
O17    O     0.34606   0.44153   0.04777   0.00000  Uiso   1.00
O18    O     0.41291   0.35814  -0.06677   0.00000  Uiso   1.00
O19    O     0.52273   0.40669   0.01293   0.00000  Uiso   1.00
Ce20   Ce    0.04572   0.47033  -0.07461   0.00000  Uiso   1.00
Ce21   Ce    0.95401   0.51250  -0.02026   0.00000  Uiso   1.00
C22    C     1.00931   0.54005   0.72973   0.00000  Uiso   1.00
C23    C     0.11619   0.42135   0.93639   0.00000  Uiso   1.00
C24    C     0.88302   0.33938  -0.04419   0.00000  Uiso   1.00
C25    C     0.05016   0.50893   0.22159   0.00000  Uiso   1.00
C26    C     0.88805   0.56293   0.06644   0.00000  Uiso   1.00
C27    C     0.12556   0.64992   0.99586   0.00000  Uiso   1.00
O28    O     1.00992   0.58539   0.81980   0.00000  Uiso   1.00
O29    O     0.97724   0.47244   0.76695   0.00000  Uiso   1.00
O30    O     0.08991   0.41758   0.81367   0.00000  Uiso   1.00
O31    O     0.10907   0.45256   0.05158   0.00000  Uiso   1.00
O32    O     0.93954   0.35557  -0.07540   0.00000  Uiso   1.00
O33    O     0.87509   0.38874  -0.00921   0.00000  Uiso   1.00
O34    O     0.06462   0.47003   0.17161   0.00000  Uiso   1.00
O35    O     0.04059   0.53550   0.11598   0.00000  Uiso   1.00
O36    O     0.93085   0.56924   0.15573   0.00000  Uiso   1.00
O37    O     0.87702   0.52890   0.93095   0.00000  Uiso   1.00
O38    O     0.06525   0.63090   1.00433   0.00000  Uiso   1.00
O39    O     0.13458   0.60084   0.96214   0.00000  Uiso   1.00
Ce40   Ce    0.51755   0.94645   1.04029   0.00000  Uiso   1.00
Ce41   Ce    0.50258   0.06849   0.02802   0.00000  Uiso   1.00
C42    C     0.48312   0.02443   0.28560   0.00000  Uiso   1.00
C43    C     0.55058   0.86003   1.06028   0.00000  Uiso   1.00
C44    C     0.64901   0.11091   0.98589   0.00000  Uiso   1.00
C45    C     0.49133   0.96048   0.76172   0.00000  Uiso   1.00
C46    C     0.46910   0.15287  -0.00844   0.00000  Uiso   1.00
C47    C     0.36366   0.89172   0.03935   0.00000  Uiso   1.00
O48    O     0.44610   0.03074   0.21953   0.00000  Uiso   1.00
O49    O     0.53799   0.04466   0.21597   0.00000  Uiso   1.00
O50    O     0.56635   0.91346   0.16768   0.00000  Uiso   1.00
O51    O     0.51435   0.84721   0.94232   0.00000  Uiso   1.00
O52    O     0.62539   0.04744   1.01195   0.00000  Uiso   1.00
O53    O     0.61379   0.13299  -0.02036   0.00000  Uiso   1.00
O54    O     0.53316   0.95436   0.79117   0.00000  Uiso   1.00
O55    O     0.46108   0.95806   0.87816   0.00000  Uiso   1.00
O56    O     0.45438   0.09855   0.88836   0.00000  Uiso   1.00
O57    O     0.50681   0.16950   0.11148   0.00000  Uiso   1.00
O58    O     0.39027   0.96063   0.03811   0.00000  Uiso   1.00
O59    O     0.39933   0.86982   1.04222   0.00000  Uiso   1.00
N60    N     0.49682   0.51424   0.48514   0.00000  Uiso   1.00
H61    H     0.55147   0.66164   0.36269   0.00000  Uiso   1.00
C62    C     0.49963   0.54780   0.38229   0.00000  Uiso   1.00
C63    C     0.54154   0.62552   0.43246   0.00000  Uiso   1.00
C64    C     0.53703   0.56782   0.61423   0.00000  Uiso   1.00
S65    S     0.57918   0.65995   0.61381   0.00000  Uiso   1.00
N66    N     1.02607   0.50851   0.47614   0.00000  Uiso   1.00
H67    H     0.11310   0.68252   0.69211   0.00000  Uiso   1.00
C68    C     0.04338   0.55967   0.60281   0.00000  Uiso   1.00
C69    C     0.09356   0.63404   0.60061   0.00000  Uiso   1.00
C70    C     0.06397   0.54539   0.37853   0.00000  Uiso   1.00
S71    S     0.12076   0.64262   0.43737   0.00000  Uiso   1.00
N72    N     0.50308   0.99526   0.51829   0.00000  Uiso   1.00
H73    H     0.35511  -0.05976   0.35840   0.00000  Uiso   1.00
C74    C     0.46215  -0.01026   0.41150   0.00000  Uiso   1.00
C75    C     0.39503  -0.05020   0.43125   0.00000  Uiso   1.00
C76    C     0.46498  -0.04132   0.61748   0.00000  Uiso   1.00
S77    S     0.38000  -0.08238   0.58323   0.00000  Uiso   1.00
N78    N     0.20593   0.41285   0.89336   0.00000  Uiso   1.00
H79    H     0.20979   0.31399   0.09078   0.00000  Uiso   1.00
C80    C     0.23171   0.38384  -0.05719   0.00000  Uiso   1.00
C81    C     0.19501   0.33950   0.03606   0.00000  Uiso   1.00
C82    C     0.14902   0.38928  -0.05156   0.00000  Uiso   1.00
S83    S     0.12576   0.33206   0.06366   0.00000  Uiso   1.00
N84    N     0.76220   0.23318  -0.02513   0.00000  Uiso   1.00
H85    H     0.87506   0.21358   0.88474   0.00000  Uiso   1.00
C86    C     0.82464   0.25929   0.94837   0.00000  Uiso   1.00
C87    C     0.82928   0.20358   0.91074   0.00000  Uiso   1.00
C88    C     0.72009   0.15750   0.95822   0.00000  Uiso   1.00
S89    S     0.75551   0.11634   0.90907   0.00000  Uiso   1.00
N90    N     0.79703   0.57091   0.04128   0.00000  Uiso   1.00
H91    H     0.92170   0.66513   1.33540   0.00000  Uiso   1.00
C92    C     0.85439   0.59267   1.11911   0.00000  Uiso   1.00
C93    C     0.87628   0.64176   1.25748   0.00000  Uiso   1.00
C94    C     0.77489   0.60291   1.12200   0.00000  Uiso   1.00
S95    S     0.82345   0.66068   1.29565   0.00000  Uiso   1.00
N96    N     0.24965   0.76310   0.01575   0.00000  Uiso   1.00
H97    H     0.27707   0.92320   1.09374   0.00000  Uiso   1.00
C98    C     0.28943   0.83891   1.04289   0.00000  Uiso   1.00
C99    C     0.25385   0.86427   1.06989   0.00000  Uiso   1.00
C100   C     0.18369   0.73175   1.02191   0.00000  Uiso   1.00
S101   S     0.16892   0.79385   1.06201   0.00000  Uiso   1.00
N102   N     0.54134   0.74692   1.00939   0.00000  Uiso   1.00
H103   H     0.67651   0.91785   0.21330   0.00000  Uiso   1.00
C104   C     0.57691   0.82102   0.07238   0.00000  Uiso   1.00
C105   C     0.64100   0.85812   0.15438   0.00000  Uiso   1.00
C106   C     0.57936   0.72835   1.04359   0.00000  Uiso   1.00
S107   S     0.65965   0.80088   0.15223   0.00000  Uiso   1.00
N108   N     0.47390   0.26160   1.00194   0.00000  Uiso   1.00
H109   H     0.32213   0.20912  -0.11273   0.00000  Uiso   1.00
C110   C     0.43153   0.27483  -0.03011   0.00000  Uiso   1.00
C111   C     0.36337   0.20979  -0.07944   0.00000  Uiso   1.00
C112   C     0.43761   0.18638  -0.02450   0.00000  Uiso   1.00
S113   S     0.35074   0.12929  -0.09029   0.00000  Uiso   1.00
loop_
_geom_bond_atom_site_label_1
_geom_bond_atom_site_label_2
_geom_bond_distance
_geom_bond_site_symmetry_2
_ccdc_geom_bond_type
Ce0    O9      2.214   .     S
Ce0    O10     2.257   .     S
Ce0    O19     2.287   .     S
Ce0    O11     2.272   1_554 S
Ce0    O12     2.378   1_554 S
Ce0    O14     2.280   1_554 S
Ce0    O15     2.290   1_554 S
Ce1    O13     2.323   .     S
Ce1    O15     2.292   .     S
Ce1    O16     2.306   .     S
Ce1    O8      2.336   1_556 S
Ce1    O9      2.193   1_556 S
Ce1    O17     2.272   1_556 S
Ce1    O18     2.327   1_556 S
C2     O8      1.218   .     D
C2     O9      1.366   .     S
C2     C62     1.454   .     S
C3     O10     1.277   .     A
C3     O11     1.280   1_554 A
C3     C94     1.458   1_554 S
C4     O12     1.316   .     A
C4     O13     1.304   .     A
C4     C106    1.465   .     S
C5     O14     1.223   .     D
C5     O15     1.390   .     S
C5     C64     1.454   .     S
C6     O16     1.275   .     A
C6     O17     1.270   1_556 A
C6     C80     1.462   1_556 S
C7     O18     1.299   .     A
C7     O19     1.290   .     A
C7     C110    1.472   .     S
O8     Ce1     2.336   1_554 S
O9     Ce1     2.193   1_554 S
O11    Ce0     2.272   1_556 S
O11    C3      1.280   1_556 A
O12    Ce0     2.378   1_556 S
O14    Ce0     2.280   1_556 S
O15    Ce0     2.290   1_556 S
O17    Ce1     2.272   1_554 S
O17    C6      1.270   1_554 A
O18    Ce1     2.327   1_554 S
Ce20   O31     2.272   .     S
Ce20   O34     2.348   .     S
Ce20   O35     2.190   .     S
Ce20   O29     2.298   1_454 S
Ce20   O30     2.299   1_554 S
Ce20   O32     2.320   1_455 S
Ce20   O39     2.338   1_554 S
Ce21   O33     2.301   .     S
Ce21   O36     2.255   .     S
Ce21   O28     2.291   1_554 S
Ce21   O29     2.297   1_554 S
Ce21   O35     2.210   1_655 S
Ce21   O37     2.288   1_554 S
Ce21   O38     2.366   1_654 S
C22    O28     1.222   .     D
C22    O29     1.387   .     S
C22    C68     1.464   1_655 S
C23    O30     1.275   .     A
C23    O31     1.272   1_556 A
C23    C82     1.461   1_556 S
C24    O32     1.298   .     A
C24    O33     1.293   .     A
C24    C86     1.477   1_554 S
C25    O34     1.217   .     D
C25    O35     1.364   .     S
C25    C70     1.459   .     S
C26    O36     1.272   .     A
C26    O37     1.280   1_554 A
C26    C92     1.463   1_554 S
C27    O38     1.314   .     A
C27    O39     1.307   .     A
C27    C100    1.472   .     S
O28    Ce21    2.291   1_556 S
O29    Ce20    2.298   1_656 S
O29    Ce21    2.297   1_556 S
O30    Ce20    2.299   1_556 S
O31    C23     1.272   1_554 A
O32    Ce20    2.320   1_655 S
O35    Ce21    2.210   1_455 S
O37    Ce21    2.288   1_556 S
O37    C26     1.280   1_556 A
O38    Ce21    2.366   1_456 S
O39    Ce20    2.338   1_556 S
Ce40   O51     2.301   .     S
Ce40   O54     2.402   .     S
Ce40   O55     2.241   .     S
Ce40   O59     2.343   .     S
Ce40   O49     2.308   1_566 S
Ce40   O50     2.262   1_556 S
Ce40   O52     2.304   1_565 S
Ce41   O48     2.286   .     S
Ce41   O49     2.279   .     S
Ce41   O53     2.335   .     S
Ce41   O57     2.300   .     S
Ce41   O55     2.218   1_544 S
Ce41   O56     2.265   1_554 S
Ce41   O58     2.362   1_545 S
C42    O48     1.220   .     D
C42    O49     1.393   .     S
C42    C74     1.484   .     S
C43    O51     1.278   .     A
C43    O50     1.271   1_556 A
C43    C104    1.466   1_556 S
C44    O52     1.297   .     A
C44    C88     1.476   .     S
C44    O53     1.303   1_556 A
C45    O54     1.200   .     D
C45    O55     1.343   .     S
C45    C76     1.476   1_565 S
C46    O57     1.280   .     A
C46    C112    1.468   .     S
C46    O56     1.272   1_554 A
C47    O58     1.314   .     A
C47    O59     1.307   1_554 A
C47    C98     1.475   1_554 S
O49    Ce40    2.308   1_544 S
O50    Ce40    2.262   1_554 S
O50    C43     1.271   1_554 A
O52    Ce40    2.304   1_545 S
O53    C44     1.303   1_554 A
O55    Ce41    2.218   1_566 S
O56    Ce41    2.265   1_556 S
O56    C46     1.272   1_556 A
O58    Ce41    2.362   1_565 S
O59    C47     1.307   1_556 A
N60    C62     1.339   .     A
N60    C64     1.348   .     A
H61    C63     1.083   .     S
C62    C63     1.376   .     A
C63    S65     1.692   .     A
C64    S65     1.715   .     A
N66    C68     1.345   1_655 A
N66    C70     1.349   1_655 A
H67    C69     1.083   .     S
C68    C69     1.377   .     A
C68    N66     1.345   1_455 A
C68    C22     1.464   1_455 S
C69    S71     1.692   .     A
C70    S71     1.714   .     A
C70    N66     1.349   1_455 A
N72    C74     1.355   1_565 A
N72    C76     1.361   1_565 A
H73    C75     1.082   .     S
C74    C75     1.378   .     A
C74    N72     1.355   1_545 A
C75    S77     1.683   .     A
C76    S77     1.713   .     A
C76    N72     1.361   1_545 A
C76    C45     1.476   1_545 S
N78    C80     1.343   1_556 A
N78    C82     1.348   1_556 A
H79    C81     1.082   .     S
C80    C81     1.376   .     A
C80    N78     1.343   1_554 A
C80    C6      1.462   1_554 S
C81    S83     1.698   .     A
C82    S83     1.713   .     A
C82    N78     1.348   1_554 A
C82    C23     1.461   1_554 S
N84    C86     1.350   1_554 A
N84    C88     1.353   1_554 A
H85    C87     1.083   .     S
C86    C87     1.379   .     A
C86    N84     1.350   1_556 A
C86    C24     1.477   1_556 S
C87    S89     1.693   .     A
C88    S89     1.719   .     A
C88    N84     1.353   1_556 A
N90    C92     1.338   1_554 A
N90    C94     1.347   1_554 A
H91    C93     1.083   .     S
C92    C93     1.378   .     A
C92    N90     1.338   1_556 A
C92    C26     1.463   1_556 S
C93    S95     1.699   .     A
C94    S95     1.714   .     A
C94    N90     1.347   1_556 A
C94    C3      1.458   1_556 S
N96    C98     1.347   1_554 A
N96    C100    1.354   1_554 A
H97    C99     1.082   .     S
C98    C99     1.379   .     A
C98    N96     1.347   1_556 A
C98    C47     1.475   1_556 S
C99    S101    1.689   .     A
C100   S101    1.717   .     A
C100   N96     1.354   1_556 A
N102   C106    1.351   .     A
N102   C104    1.342   1_556 A
H103   C105    1.082   .     S
C104   C105    1.377   .     A
C104   N102    1.342   1_554 A
C104   C43     1.466   1_554 S
C105   S107    1.696   .     A
C106   S107    1.715   1_556 A
S107   C106    1.715   1_554 A
N108   C110    1.347   1_556 A
N108   C112    1.347   1_556 A
H109   C111    1.082   .     S
C110   C111    1.378   .     A
C110   N108    1.347   1_554 A
C111   S113    1.701   .     A
C112   S113    1.714   .     A
C112   N108    1.347   1_554 A
