data_kag+N248+E28
_audit_creation_date              2025-01-21
_audit_creation_method            'Materials Studio'
_symmetry_space_group_name_H-M    'P1'
_symmetry_Int_Tables_number       1
_symmetry_cell_setting            triclinic
loop_
_symmetry_equiv_pos_as_xyz
  x,y,z
_cell_length_a                    39.8860
_cell_length_b                    43.3793
_cell_length_c                    19.8397
_cell_angle_alpha                 87.2346
_cell_angle_beta                  93.2755
_cell_angle_gamma                 124.9969
loop_
_atom_site_label
_atom_site_type_symbol
_atom_site_fract_x
_atom_site_fract_y
_atom_site_fract_z
_atom_site_U_iso_or_equiv
_atom_site_adp_type
_atom_site_occupancy
O0     O     0.52233   0.53421   0.88841   0.00000  Uiso   1.00
Yb1    Yb    0.48621   0.46047   1.00367   0.00000  Uiso   1.00
C2     C     0.46390   0.39305   0.01258   0.00000  Uiso   1.00
Yb3    Yb    0.51893   0.54180  -0.00558   0.00000  Uiso   1.00
O4     O     0.49522   0.47058   0.89363   0.00000  Uiso   1.00
C5     C     0.44226   0.49794   0.02309   0.00000  Uiso   1.00
C6     C     0.50892   0.50236   0.85989   0.00000  Uiso   1.00
O7     O     0.50529   0.58123   0.96859   0.00000  Uiso   1.00
C8     C     0.54123   0.60915   0.98526   0.00000  Uiso   1.00
O9     O     0.53931   0.47634   0.94674   0.00000  Uiso   1.00
O10    O     0.54452   0.51140   0.02495   0.00000  Uiso   1.00
O11    O     0.48405   0.46829   0.11016   0.00000  Uiso   1.00
O12    O     0.56568   0.60069   0.00847   0.00000  Uiso   1.00
O13    O     0.51015   0.53172   0.10484   0.00000  Uiso   1.00
C14    C     0.56354   0.50481   0.97766   0.00000  Uiso   1.00
C15    C     0.49724   0.50009   0.13872   0.00000  Uiso   1.00
O16    O     0.49989   0.42097   0.02889   0.00000  Uiso   1.00
O17    O     0.43946   0.40154   0.98962   0.00000  Uiso   1.00
O18    O     0.46707   0.52633   0.05406   0.00000  Uiso   1.00
O19    O     0.46044   0.49103   0.97445   0.00000  Uiso   1.00
O20    O     0.97622   0.50510   0.89000   0.00000  Uiso   1.00
Yb21   Yb    0.03045   0.49018   0.00557   0.00000  Uiso   1.00
C22    C     0.08188   0.47332   0.01173   0.00000  Uiso   1.00
Yb23   Yb    0.97357   0.50977   0.99746   0.00000  Uiso   1.00
O24    O     0.02298   0.48993   0.89668   0.00000  Uiso   1.00
C25    C     0.92327   0.43802   0.00446   0.00000  Uiso   1.00
C26    C    -0.00084   0.49704   0.86232   0.00000  Uiso   1.00
O27    O     0.91108   0.49211   0.99677   0.00000  Uiso   1.00
C28    C     0.92176   0.52621   0.99193   0.00000  Uiso   1.00
O29    O     0.09186   0.54059   1.00252   0.00000  Uiso   1.00
O30    O     0.03853   0.54389  -0.00243   0.00000  Uiso   1.00
O31    O     0.02783   0.49493   0.11301   0.00000  Uiso   1.00
O32    O     0.96027   0.55118  -0.01101   0.00000  Uiso   1.00
O33    O     0.98094   0.50993   0.10629   0.00000  Uiso   1.00
C34    C     0.08081   0.56189  -0.00163   0.00000  Uiso   1.00
C35    C     0.00480   0.50290   0.14065   0.00000  Uiso   1.00
O36    O     0.09291   0.50752   0.00633   0.00000  Uiso   1.00
O37    O     0.04334   0.44854   1.01448   0.00000  Uiso   1.00
O38    O     0.91217   0.45928   0.00019   0.00000  Uiso   1.00
O39    O     0.96556   0.45611   1.00542   0.00000  Uiso   1.00
O40    O     0.49034   0.01907   0.10622   0.00000  Uiso   1.00
Yb41   Yb    0.51305   0.97514   0.00378   0.00000  Uiso   1.00
C42    C     0.53099   0.92737   1.00672   0.00000  Uiso   1.00
Yb43   Yb    0.48968   0.02577   0.99776   0.00000  Uiso   1.00
O44    O     0.50848   0.97731   0.11161   0.00000  Uiso   1.00
C45    C     0.56786   0.07351   0.00660   0.00000  Uiso   1.00
C46    C     0.49909  -0.00215   0.13994   0.00000  Uiso   1.00
O47    O     0.50869   0.08290  -0.00132   0.00000  Uiso   1.00
C48    C     0.47177   0.07353  -0.00446   0.00000  Uiso   1.00
O49    O     0.45911   0.91850  -0.00149   0.00000  Uiso   1.00
O50    O     0.45322   0.96610   0.99561   0.00000  Uiso   1.00
O51    O     0.51238   0.98182   0.89529   0.00000  Uiso   1.00
O52    O     0.44433   0.03813   0.99161   0.00000  Uiso   1.00
O53    O     0.49430   0.02364   0.88992   0.00000  Uiso   1.00
C54    C     0.43486   0.92738  -0.00548   0.00000  Uiso   1.00
C55    C     0.50368   1.00310   0.86158   0.00000  Uiso   1.00
O56    O     0.49407   0.91801   1.00335   0.00000  Uiso   1.00
O57    O     0.55842   0.96279   0.01011   0.00000  Uiso   1.00
O58    O     0.54365   0.08242   1.00297   0.00000  Uiso   1.00
O59    O     0.54947   0.03479   0.00566   0.00000  Uiso   1.00
C60    C     0.49856   0.50056   0.35584   0.00000  Uiso   1.00
C61    C     0.51189   0.53366   0.31783   0.00000  Uiso   1.00
C62    C     0.51087   0.53344   0.24730   0.00000  Uiso   1.00
C63    C     0.49645   0.50011   0.21321   0.00000  Uiso   1.00
C64    C     0.48256   0.46693   0.25120   0.00000  Uiso   1.00
C65    C     0.48358   0.46714   0.32162   0.00000  Uiso   1.00
C66    C     0.50093   0.50094   0.43065   0.00000  Uiso   1.00
N67    N     0.48848   0.46903   0.46728   0.00000  Uiso   1.00
N68    N     0.49096   0.46939   0.53449   0.00000  Uiso   1.00
C69    C     0.50608   0.50170   0.56798   0.00000  Uiso   1.00
N70    N     0.51854   0.53361   0.53136   0.00000  Uiso   1.00
N71    N     0.51605   0.53325   0.46414   0.00000  Uiso   1.00
C72    C     0.50835   0.50204   0.64280   0.00000  Uiso   1.00
C73    C     0.52369   0.53552   0.67707   0.00000  Uiso   1.00
C74    C     0.52461   0.53570   0.74748   0.00000  Uiso   1.00
C75    C     0.51015   0.50240   0.78544   0.00000  Uiso   1.00
C76    C     0.49542   0.46901   0.75131   0.00000  Uiso   1.00
C77    C     0.49455   0.46883   0.68077   0.00000  Uiso   1.00
H78    H     0.52360   0.55991   0.34251   0.00000  Uiso   1.00
H79    H     0.52196   0.55953   0.21958   0.00000  Uiso   1.00
H80    H     0.47138   0.44076   0.22664   0.00000  Uiso   1.00
H81    H     0.47305   0.44112   0.34917   0.00000  Uiso   1.00
H82    H     0.53459   0.56162   0.64954   0.00000  Uiso   1.00
H83    H     0.53613   0.56194   0.77208   0.00000  Uiso   1.00
H84    H     0.48398   0.44283   0.77898   0.00000  Uiso   1.00
H85    H     0.48255   0.44252   0.65606   0.00000  Uiso   1.00
C86    C     0.99968   0.49742   0.64483   0.00000  Uiso   1.00
C87    C    -0.02667   0.50328   0.67714   0.00000  Uiso   1.00
C88    C    -0.02720   0.50276   0.74763   0.00000  Uiso   1.00
C89    C     0.99860   0.49634   0.78754   0.00000  Uiso   1.00
C90    C     1.02450   0.48992   0.75521   0.00000  Uiso   1.00
C91    C     1.02504   0.49045   0.68475   0.00000  Uiso   1.00
C92    C     1.00085   0.49877   0.57003   0.00000  Uiso   1.00
N93    N     1.02641   0.49333   0.53867   0.00000  Uiso   1.00
N94    N     1.02752   0.49463   0.47155   0.00000  Uiso   1.00
C95    C     1.00315   0.50145   0.43284   0.00000  Uiso   1.00
N96    N    -0.02241   0.50690   0.46420   0.00000  Uiso   1.00
N97    N    -0.02352   0.50561   0.53133   0.00000  Uiso   1.00
C98    C     1.00421   0.50263   0.35805   0.00000  Uiso   1.00
C99    C    -0.02126   0.50943   0.31805   0.00000  Uiso   1.00
C100   C    -0.02069   0.50992   0.24761   0.00000  Uiso   1.00
C101   C     0.00531   0.50358   0.21539   0.00000  Uiso   1.00
C102   C     1.03108   0.49716   0.25536   0.00000  Uiso   1.00
C103   C     1.03054   0.49670   0.32583   0.00000  Uiso   1.00
H104   H    -0.04684   0.50844   0.64798   0.00000  Uiso   1.00
H105   H    -0.04775   0.50756   0.77078   0.00000  Uiso   1.00
H106   H     1.04468   0.48474   0.78433   0.00000  Uiso   1.00
H107   H     1.04552   0.48555   0.66166   0.00000  Uiso   1.00
H108   H    -0.04184   0.51422   0.34106   0.00000  Uiso   1.00
H109   H    -0.04093   0.51500   0.21841   0.00000  Uiso   1.00
H110   H     1.05161   0.49231   0.23228   0.00000  Uiso   1.00
H111   H     1.05068   0.49154   0.35506   0.00000  Uiso   1.00
C112   C     0.49958  -0.00139   0.35737   0.00000  Uiso   1.00
C113   C     0.50833   0.97595   0.32501   0.00000  Uiso   1.00
C114   C     0.50794   0.97545   0.25450   0.00000  Uiso   1.00
C115   C     0.49870  -0.00246   0.21469   0.00000  Uiso   1.00
C116   C     0.48954   0.01988   0.24711   0.00000  Uiso   1.00
C117   C     0.48993   0.02036   0.31750   0.00000  Uiso   1.00
C118   C     0.50047  -0.00044   0.43214   0.00000  Uiso   1.00
N119   N     0.49210   0.02150   0.46339   0.00000  Uiso   1.00
N120   N     0.49294   0.02241   0.53051   0.00000  Uiso   1.00
C121   C     0.50224   1.00144   0.56935   0.00000  Uiso   1.00
N122   N     0.51059   0.97949   0.53810   0.00000  Uiso   1.00
N123   N     0.50974   0.97858   0.47099   0.00000  Uiso   1.00
C124   C     0.50318   1.00241   0.64414   0.00000  Uiso   1.00
C125   C     0.51281   0.98062   0.68395   0.00000  Uiso   1.00
C126   C     0.51323   0.98109   0.75435   0.00000  Uiso   1.00
C127   C     0.50412   1.00345   0.78682   0.00000  Uiso   1.00
C128   C     0.49493   0.02559   0.74707   0.00000  Uiso   1.00
C129   C     0.49451   0.02510   0.67655   0.00000  Uiso   1.00
H130   H     0.51553   0.95857   0.35413   0.00000  Uiso   1.00
H131   H     0.51491   0.95776   0.23127   0.00000  Uiso   1.00
H132   H     0.48208   0.03712   0.21814   0.00000  Uiso   1.00
H133   H     0.48265   0.03787   0.34059   0.00000  Uiso   1.00
H134   H     0.52002   0.96307   0.66080   0.00000  Uiso   1.00
H135   H     0.52064   0.96380   0.78327   0.00000  Uiso   1.00
H136   H     0.48800   0.04330   0.77035   0.00000  Uiso   1.00
H137   H     0.48732   0.04251   0.64748   0.00000  Uiso   1.00
C138   C     0.31508   0.45085   0.03620   0.00000  Uiso   1.00
C139   C     0.32934   0.44315   0.98059   0.00000  Uiso   1.00
C140   C     0.37035   0.45570   0.97887   0.00000  Uiso   1.00
C141   C     0.39785   0.47679   0.03209   0.00000  Uiso   1.00
C142   C     0.38305   0.48219   0.08971   0.00000  Uiso   1.00
C143   C     0.34189   0.46899   0.09205   0.00000  Uiso   1.00
C144   C     0.27461   0.44487   0.03211   0.00000  Uiso   1.00
N145   N     0.25607   0.44339   0.08875   0.00000  Uiso   1.00
N146   N     0.22237   0.44304   0.08441   0.00000  Uiso   1.00
C147   C     0.20621   0.44465   0.02327   0.00000  Uiso   1.00
N148   N     0.22437   0.44551   0.96672   0.00000  Uiso   1.00
N149   N     0.25777   0.44547   0.97106   0.00000  Uiso   1.00
C150   C     0.17206   0.44907   0.01836   0.00000  Uiso   1.00
C151   C     0.16903   0.46915   0.96342   0.00000  Uiso   1.00
C152   C     0.13956   0.47696   0.96159   0.00000  Uiso   1.00
C153   C     0.11163   0.46362   0.01327   0.00000  Uiso   1.00
C154   C     0.11325   0.44210   0.06677   0.00000  Uiso   1.00
C155   C     0.14380   0.43547   0.06997   0.00000  Uiso   1.00
H156   H     0.30926   0.42905   0.93702   0.00000  Uiso   1.00
H157   H     0.38114   0.45135   0.93384   0.00000  Uiso   1.00
H158   H     0.40377   0.49840   0.13142   0.00000  Uiso   1.00
H159   H     0.33184   0.47544   0.13548   0.00000  Uiso   1.00
H160   H     0.19037   0.47998   0.92295   0.00000  Uiso   1.00
H161   H     0.13848   0.49339   0.91970   0.00000  Uiso   1.00
H162   H     0.09185   0.43157   0.10713   0.00000  Uiso   1.00
H163   H     0.14551   0.41993   0.11284   0.00000  Uiso   1.00
C164   C     0.83346   0.31890   0.01111   0.00000  Uiso   1.00
C165   C     0.85112   0.33908   0.07123   0.00000  Uiso   1.00
C166   C     0.88120   0.37788   0.06908   0.00000  Uiso   1.00
C167   C     0.89407   0.39704   0.00694   0.00000  Uiso   1.00
C168   C     0.87752   0.37704   0.94692   0.00000  Uiso   1.00
C169   C     0.84750   0.33825   0.94892   0.00000  Uiso   1.00
C170   C     0.79904   0.27848   0.01320   0.00000  Uiso   1.00
N171   N     0.78302   0.25844   0.95555   0.00000  Uiso   1.00
N172   N     0.75002   0.22301   0.95685   0.00000  Uiso   1.00
C173   C     0.73159   0.20611   1.01586   0.00000  Uiso   1.00
N174   N     0.74807   0.22595   0.07361   0.00000  Uiso   1.00
N175   N     0.78110   0.26132   0.07234   0.00000  Uiso   1.00
C176   C     0.69213   0.16842   1.01647   0.00000  Uiso   1.00
C177   C     0.66831   0.15551   0.07415   0.00000  Uiso   1.00
C178   C     0.62851   0.12284   0.07206   0.00000  Uiso   1.00
C179   C     0.61205   0.10213   1.01276   0.00000  Uiso   1.00
C180   C     0.63630   0.11352   0.95620   0.00000  Uiso   1.00
C181   C     0.67606   0.14657   0.95791   0.00000  Uiso   1.00
H182   H     0.84126   0.32504   0.11998   0.00000  Uiso   1.00
H183   H     0.89388   0.39304   0.11584   0.00000  Uiso   1.00
H184   H     0.88734   0.39157   0.89855   0.00000  Uiso   1.00
H185   H     0.83464   0.32363   0.90170   0.00000  Uiso   1.00
H186   H     0.67951   0.17173   0.11987   0.00000  Uiso   1.00
H187   H     0.60989   0.11461   0.11585   0.00000  Uiso   1.00
H188   H     0.62367   0.09813   0.90961   0.00000  Uiso   1.00
H189   H     0.69352   0.15582   0.91256   0.00000  Uiso   1.00
C190   C     0.83166   0.55061   0.98872   0.00000  Uiso   1.00
C191   C     0.86615   0.57229   0.94880   0.00000  Uiso   1.00
C192   C     0.89640   0.56525   0.95114   0.00000  Uiso   1.00
C193   C     0.89156   0.53546   0.99131   0.00000  Uiso   1.00
C194   C     0.85700   0.51379   0.03082   0.00000  Uiso   1.00
C195   C     0.82772   0.52174   0.03054   0.00000  Uiso   1.00
C196   C     0.79851   0.55624   0.98482   0.00000  Uiso   1.00
N197   N     0.77741   0.55083   0.04057   0.00000  Uiso   1.00
N198   N     0.74447   0.55158   0.03610   0.00000  Uiso   1.00
C199   C     0.73103   0.55736   0.97561   0.00000  Uiso   1.00
N200   N     0.75246   0.56329   0.91988   0.00000  Uiso   1.00
N201   N     0.78578   0.56302   0.92449   0.00000  Uiso   1.00
C202   C     0.69092   0.55198   0.96994   0.00000  Uiso   1.00
C203   C     0.66525   0.53521   0.91242   0.00000  Uiso   1.00
C204   C     0.62400   0.52193   0.91310   0.00000  Uiso   1.00
C205   C     0.60811   0.52613   0.97061   0.00000  Uiso   1.00
C206   C     0.63460   0.54598   0.02565   0.00000  Uiso   1.00
C207   C     0.67562   0.55839   0.02569   0.00000  Uiso   1.00
H208   H     0.86969   0.59467   0.91617   0.00000  Uiso   1.00
H209   H     0.92288   0.58228   0.92021   0.00000  Uiso   1.00
H210   H     0.85282   0.49080   0.06231   0.00000  Uiso   1.00
H211   H     0.80126   0.50452   0.06149   0.00000  Uiso   1.00
H212   H     0.67621   0.52974   0.86893   0.00000  Uiso   1.00
H213   H     0.60403   0.50661   0.87010   0.00000  Uiso   1.00
H214   H     0.62295   0.54936   0.07066   0.00000  Uiso   1.00
H215   H     0.69488   0.57136   0.07055   0.00000  Uiso   1.00
C216   C     0.31084   0.83208  -0.01722   0.00000  Uiso   1.00
C217   C     0.33527   0.84474   0.92586   0.00000  Uiso   1.00
C218   C     0.37498   0.87754   0.92845   0.00000  Uiso   1.00
C219   C     0.39070   0.89869  -0.01266   0.00000  Uiso   1.00
C220   C     0.36571   0.88767   0.04281   0.00000  Uiso   1.00
C221   C     0.32607   0.85446   0.04070   0.00000  Uiso   1.00
C222   C     0.27165   0.79415  -0.01649   0.00000  Uiso   1.00
N223   N     0.25238   0.77784   0.04222   0.00000  Uiso   1.00
N224   N     0.21960   0.74226   0.04389   0.00000  Uiso   1.00
C225   C     0.20472   0.72153   0.98696   0.00000  Uiso   1.00
N226   N     0.22350   0.73811   0.92809   0.00000  Uiso   1.00
N227   N     0.25628   0.77361   0.92644   0.00000  Uiso   1.00
C228   C     0.17046   0.68103   0.98948   0.00000  Uiso   1.00
C229   C     0.15572   0.65982   0.93015   0.00000  Uiso   1.00
C230   C     0.12585   0.62103   0.93298   0.00000  Uiso   1.00
C231   C     0.11003   0.60286   0.99497   0.00000  Uiso   1.00
C232   C     0.12358   0.62383   0.05404   0.00000  Uiso   1.00
C233   C     0.15364   0.66265   0.05142   0.00000  Uiso   1.00
H234   H     0.32465   0.82826   0.88048   0.00000  Uiso   1.00
H235   H     0.39411   0.88556   0.88541   0.00000  Uiso   1.00
H236   H     0.37768   0.90346   0.08902   0.00000  Uiso   1.00
H237   H     0.30805   0.84549   0.08536   0.00000  Uiso   1.00
H238   H     0.16775   0.67305   0.88157   0.00000  Uiso   1.00
H239   H     0.11548   0.60512   0.88690   0.00000  Uiso   1.00
H240   H     0.11150   0.61004   0.10231   0.00000  Uiso   1.00
H241   H     0.16425   0.67805   0.09806   0.00000  Uiso   1.00
C242   C     0.55414   0.84272   0.99172   0.00000  Uiso   1.00
C243   C     0.51447   0.83406   0.98289   0.00000  Uiso   1.00
C244   C     0.50737   0.86159   0.98947   0.00000  Uiso   1.00
C245   C     0.53981   0.89872   1.00433   0.00000  Uiso   1.00
C246   C     0.57961   0.90759   0.01442   0.00000  Uiso   1.00
C247   C     0.58668   0.87959   0.00877   0.00000  Uiso   1.00
C248   C     0.56034   0.81279  -0.01801   0.00000  Uiso   1.00
N249   N     0.59033   0.81199   0.01642   0.00000  Uiso   1.00
N250   N     0.59271   0.78271   0.01126   0.00000  Uiso   1.00
C251   C     0.56541   0.75334  -0.02898   0.00000  Uiso   1.00
N252   N     0.53630   0.75487   0.93552   0.00000  Uiso   1.00
N253   N     0.53376   0.78384   0.94094   0.00000  Uiso   1.00
C254   C     0.56437   0.71865  -0.03050   0.00000  Uiso   1.00
C255   C     0.53532   0.68945   0.92674   0.00000  Uiso   1.00
C256   C     0.52935   0.65458   0.93077   0.00000  Uiso   1.00
C257   C     0.55243   0.64788  -0.02287   0.00000  Uiso   1.00
C258   C     0.58340   0.67751   0.01713   0.00000  Uiso   1.00
C259   C     0.58922   0.71272   0.01357   0.00000  Uiso   1.00
H260   H     0.48865   0.80577   0.97097   0.00000  Uiso   1.00
H261   H     0.47633   0.85379   0.98171   0.00000  Uiso   1.00
H262   H     0.60513   0.93602   0.02622   0.00000  Uiso   1.00
H263   H     0.61752   0.88689   0.01608   0.00000  Uiso   1.00
H264   H     0.51594   0.69295   0.89148   0.00000  Uiso   1.00
H265   H     0.50581   0.63241   0.89843   0.00000  Uiso   1.00
H266   H     0.60172   0.67298   0.05305   0.00000  Uiso   1.00
H267   H     0.61203   0.73472   0.04691   0.00000  Uiso   1.00
C268   C     0.43981   0.28317   0.03028   0.00000  Uiso   1.00
C269   C     0.41506   0.28915   0.98600   0.00000  Uiso   1.00
C270   C     0.42130   0.32452   0.98166   0.00000  Uiso   1.00
C271   C     0.45257   0.35428   0.02110   0.00000  Uiso   1.00
C272   C     0.47557   0.34759   0.06765   0.00000  Uiso   1.00
C273   C     0.46918   0.31254   0.07246   0.00000  Uiso   1.00
C274   C     0.43816   0.24814   0.02971   0.00000  Uiso   1.00
N275   N     0.46593   0.24575   0.06788   0.00000  Uiso   1.00
N276   N     0.46811   0.21652   0.06336   0.00000  Uiso   1.00
C277   C     0.44249   0.18817   0.02059   0.00000  Uiso   1.00
N278   N     0.41382   0.18982   0.98342   0.00000  Uiso   1.00
N279   N     0.41179   0.21935   0.98772   0.00000  Uiso   1.00
C280   C     0.44862   0.15811   0.01175   0.00000  Uiso   1.00
C281   C     0.41645   0.12169   0.99166   0.00000  Uiso   1.00
C282   C     0.42350   0.09369   0.98591   0.00000  Uiso   1.00
C283   C     0.46296   0.10214  -0.00111   0.00000  Uiso   1.00
C284   C     0.49502   0.13877   0.01737   0.00000  Uiso   1.00
C285   C     0.48791   0.16628   0.02410   0.00000  Uiso   1.00
H286   H     0.39190   0.26697   0.95329   0.00000  Uiso   1.00
H287   H     0.40296   0.32902   0.94573   0.00000  Uiso   1.00
H288   H     0.49927   0.36985   0.09969   0.00000  Uiso   1.00
H289   H     0.48845   0.30901   0.10792   0.00000  Uiso   1.00
H290   H     0.38588   0.11475   0.98181   0.00000  Uiso   1.00
H291   H     0.39828   0.06561   0.97150   0.00000  Uiso   1.00
H292   H     0.52575   0.14617   0.02773   0.00000  Uiso   1.00
H293   H     0.51346   0.19420   0.03866   0.00000  Uiso   1.00
loop_
_geom_bond_atom_site_label_1
_geom_bond_atom_site_label_2
_geom_bond_distance
_geom_bond_site_symmetry_2
_ccdc_geom_bond_type
O0     C6      1.307   .     A
O0     Yb3     2.168   1_556 S
Yb1    O4      2.215   .     S
Yb1    O9      2.182   .     S
Yb1    O17     2.152   .     S
Yb1    O19     2.138   .     S
Yb1    Yb3     2.978   1_556 S
Yb1    O10     2.133   1_556 S
Yb1    O11     2.170   1_556 S
Yb1    O16     2.108   1_556 S
C2     O16     1.274   .     A
C2     C271    1.473   .     S
C2     O17     1.280   1_554 A
Yb3    O10     2.132   .     S
Yb3    O12     2.151   .     S
Yb3    O13     2.221   .     S
Yb3    O18     2.177   .     S
Yb3    O0      2.168   1_554 S
Yb3    Yb1     2.978   1_554 S
Yb3    O7      2.106   1_554 S
Yb3    O19     2.130   1_554 S
O4     C6      1.317   .     A
C5     O18     1.216   .     D
C5     C141    1.472   .     S
C5     O19     1.380   1_554 S
C6     C75     1.481   .     S
O7     C8      1.274   .     A
O7     Yb3     2.106   1_556 S
C8     O12     1.281   1_556 A
C8     C257    1.473   1_556 S
O9     C14     1.213   .     D
O10    Yb1     2.133   1_554 S
O10    C14     1.376   1_554 S
O11    C15     1.307   .     A
O11    Yb1     2.170   1_554 S
O12    C8      1.281   1_554 A
O13    C15     1.319   .     A
C14    C205    1.472   .     S
C14    O10     1.376   1_556 S
C15    C63     1.480   .     S
O16    Yb1     2.108   1_554 S
O17    C2      1.280   1_556 A
O19    Yb3     2.130   1_556 S
O19    C5      1.380   1_556 S
O20    Yb23    2.166   .     S
O20    C26     1.306   1_655 A
Yb21   O30     2.160   .     S
Yb21   O31     2.166   .     S
Yb21   O36     2.149   .     S
Yb21   Yb23    2.837   1_454 S
Yb21   O24     2.164   1_554 S
Yb21   O29     2.155   1_554 S
Yb21   O37     2.141   1_554 S
Yb21   O39     2.120   1_454 S
C22    O36     1.283   .     A
C22    C153    1.468   .     S
C22    O37     1.276   1_554 A
Yb23   O27     2.146   .     S
Yb23   O39     2.159   .     S
Yb23   Yb21    2.837   1_656 S
Yb23   O30     2.122   1_656 S
Yb23   O32     2.143   1_556 S
Yb23   O33     2.162   1_556 S
Yb23   O38     2.156   1_556 S
O24    C26     1.305   .     A
O24    Yb21    2.164   1_556 S
C25    O38     1.229   .     D
C25    C167    1.464   .     S
C25    O39     1.393   1_554 S
C26    O20     1.306   1_455 A
C26    C89     1.484   1_455 S
O27    C28     1.284   .     A
C28    C193    1.471   .     S
C28    O32     1.277   1_556 A
O29    Yb21    2.155   1_556 S
O29    C34     1.229   1_556 D
O30    C34     1.394   .     S
O30    Yb23    2.122   1_454 S
O31    C35     1.305   .     A
O32    Yb23    2.143   1_554 S
O32    C28     1.277   1_554 A
O33    Yb23    2.162   1_554 S
O33    C35     1.305   1_655 A
C34    O29     1.229   1_554 D
C34    C231    1.464   1_554 S
C35    C101    1.483   .     S
C35    O33     1.305   1_455 A
O37    Yb21    2.141   1_556 S
O37    C22     1.276   1_556 A
O38    Yb23    2.156   1_554 S
O39    Yb21    2.120   1_656 S
O39    C25     1.393   1_556 S
O40    C46     1.304   .     A
O40    Yb43    2.158   1_554 S
Yb41   O44     2.168   .     S
Yb41   O49     2.148   .     S
Yb41   O57     2.158   .     S
Yb41   Yb43    2.831   1_564 S
Yb41   O50     2.182   1_554 S
Yb41   O51     2.159   1_554 S
Yb41   O56     2.137   1_554 S
Yb41   O59     2.121   1_565 S
C42    O56     1.282   .     A
C42    C245    1.476   .     S
C42    O57     1.279   1_556 A
Yb43   O52     2.158   .     S
Yb43   O53     2.169   .     S
Yb43   O58     2.148   .     S
Yb43   O40     2.158   1_556 S
Yb43   Yb41    2.831   1_546 S
Yb43   O47     2.136   1_556 S
Yb43   O50     2.122   1_545 S
Yb43   O59     2.181   1_556 S
O44    C46     1.306   1_565 A
C45    O59     1.396   .     S
C45    O58     1.227   1_554 D
C45    C179    1.464   1_554 S
C46    C115    1.483   .     S
C46    O44     1.306   1_545 A
O47    C48     1.282   .     A
O47    Yb43    2.136   1_554 S
C48    C283    1.476   .     S
C48    O52     1.279   1_554 A
O49    C54     1.227   .     D
O50    Yb41    2.182   1_556 S
O50    Yb43    2.122   1_565 S
O50    C54     1.396   1_556 S
O51    C55     1.304   .     A
O51    Yb41    2.159   1_556 S
O52    C48     1.279   1_556 A
O53    C55     1.306   1_545 A
C54    C219    1.465   .     S
C54    O50     1.396   1_554 S
C55    C127    1.484   .     S
C55    O53     1.306   1_565 A
O56    Yb41    2.137   1_556 S
O57    C42     1.279   1_554 A
O58    C45     1.227   1_556 D
O59    Yb41    2.121   1_545 S
O59    Yb43    2.181   1_554 S
C60    C61     1.407   .     A
C60    C65     1.405   .     A
C60    C66     1.482   .     S
C61    C62     1.398   .     A
C61    H78     1.083   .     S
C62    C63     1.405   .     A
C62    H79     1.083   .     S
C63    C64     1.406   .     A
C64    C65     1.396   .     A
C64    H80     1.083   .     S
C65    H81     1.083   .     S
C66    N67     1.359   .     A
C66    N71     1.358   .     A
N67    N68     1.332   .     A
N68    C69     1.358   .     A
C69    N70     1.359   .     A
C69    C72     1.482   .     S
N70    N71     1.332   .     A
C72    C73     1.405   .     A
C72    C77     1.407   .     A
C73    C74     1.396   .     A
C73    H82     1.083   .     S
C74    C75     1.406   .     A
C74    H83     1.083   .     S
C75    C76     1.405   .     A
C76    C77     1.398   .     A
C76    H84     1.083   .     S
C77    H85     1.083   .     S
C86    C91     1.406   .     A
C86    C92     1.485   .     S
C86    C87     1.407   1_655 A
C87    C88     1.399   .     A
C87    H104    1.083   .     S
C87    C86     1.407   1_455 A
C88    H105    1.083   .     S
C88    C89     1.406   1_455 A
C89    C90     1.407   .     A
C89    C88     1.406   1_655 A
C89    C26     1.484   1_655 S
C90    C91     1.398   .     A
C90    H106    1.083   .     S
C91    H107    1.083   .     S
C92    N93     1.358   .     A
C92    N97     1.359   1_655 A
N93    N94     1.332   .     A
N94    C95     1.359   .     A
C95    C98     1.485   .     S
C95    N96     1.359   1_655 A
N96    N97     1.332   .     A
N96    C95     1.359   1_455 A
N97    C92     1.359   1_455 A
C98    C103    1.407   .     A
C98    C99     1.406   1_655 A
C99    C100    1.398   .     A
C99    H108    1.083   .     S
C99    C98     1.406   1_455 A
C100   C101    1.407   .     A
C100   H109    1.083   .     S
C101   C102    1.406   1_455 A
C102   C103    1.399   .     A
C102   H110    1.084   .     S
C102   C101    1.406   1_655 A
C103   H111    1.083   .     S
C112   C117    1.405   .     A
C112   C118    1.484   .     S
C112   C113    1.407   1_545 A
C113   C114    1.399   .     A
C113   H130    1.083   .     S
C113   C112    1.407   1_565 A
C114   H131    1.083   .     S
C114   C115    1.406   1_565 A
C115   C116    1.407   .     A
C115   C114    1.406   1_545 A
C116   C117    1.397   .     A
C116   H132    1.083   .     S
C117   H133    1.083   .     S
C118   N119    1.359   .     A
C118   N123    1.358   1_545 A
N119   N120    1.332   .     A
N120   C121    1.358   1_545 A
C121   N122    1.359   .     A
C121   C124    1.484   .     S
C121   N120    1.358   1_565 A
N122   N123    1.332   .     A
N123   C118    1.358   1_565 A
C124   C125    1.405   .     A
C124   C129    1.407   1_565 A
C125   C126    1.397   .     A
C125   H134    1.083   .     S
C126   C127    1.407   .     A
C126   H135    1.083   .     S
C127   C128    1.406   1_565 A
C128   C129    1.399   .     A
C128   H136    1.083   .     S
C128   C127    1.406   1_545 A
C129   H137    1.083   .     S
C129   C124    1.407   1_545 A
C138   C143    1.405   .     A
C138   C144    1.479   .     S
C138   C139    1.406   1_554 A
C139   C140    1.399   .     A
C139   H156    1.083   .     S
C139   C138    1.406   1_556 A
C140   H157    1.083   .     S
C140   C141    1.402   1_556 A
C141   C142    1.404   .     A
C141   C140    1.402   1_554 A
C142   C143    1.397   .     A
C142   H158    1.083   .     S
C143   H159    1.083   .     S
C144   N145    1.359   .     A
C144   N149    1.358   1_554 A
N145   N146    1.333   .     A
N146   C147    1.359   .     A
C147   C150    1.478   .     S
C147   N148    1.358   1_554 A
N148   N149    1.331   .     A
N148   C147    1.358   1_556 A
N149   C144    1.358   1_556 A
C150   C155    1.406   .     A
C150   C151    1.406   1_554 A
C151   C152    1.396   .     A
C151   H160    1.083   .     S
C151   C150    1.406   1_556 A
C152   H161    1.083   .     S
C152   C153    1.400   1_556 A
C153   C154    1.403   .     A
C153   C152    1.400   1_554 A
C154   C155    1.401   .     A
C154   H162    1.084   .     S
C155   H163    1.083   .     S
C164   C165    1.408   .     A
C164   C170    1.483   .     S
C164   C169    1.407   1_554 A
C165   C166    1.399   .     A
C165   H182    1.083   .     S
C166   C167    1.399   .     A
C166   H183    1.083   .     S
C167   C168    1.400   1_554 A
C168   C169    1.398   .     A
C168   H184    1.083   .     S
C168   C167    1.400   1_556 A
C169   H185    1.083   .     S
C169   C164    1.407   1_556 A
C170   N175    1.358   .     A
C170   N171    1.359   1_554 A
N171   N172    1.332   .     A
N171   C170    1.359   1_556 A
N172   C173    1.359   .     A
C173   C176    1.483   .     S
C173   N174    1.359   1_556 A
N174   N175    1.331   .     A
N174   C173    1.359   1_554 A
C176   C181    1.408   .     A
C176   C177    1.406   1_556 A
C177   C178    1.396   .     A
C177   H186    1.083   .     S
C177   C176    1.406   1_554 A
C178   H187    1.083   .     S
C178   C179    1.400   1_554 A
C179   C180    1.401   .     A
C179   C178    1.400   1_556 A
C179   C45     1.464   1_556 S
C180   C181    1.401   .     A
C180   H188    1.084   .     S
C181   H189    1.082   .     S
C190   C191    1.405   .     A
C190   C196    1.473   .     S
C190   C195    1.404   1_556 A
C191   C192    1.402   .     A
C191   H208    1.084   .     S
C192   C193    1.405   .     A
C192   H209    1.083   .     S
C193   C194    1.401   1_556 A
C194   C195    1.395   .     A
C194   H210    1.083   .     S
C194   C193    1.401   1_554 A
C195   H211    1.083   .     S
C195   C190    1.404   1_554 A
C196   N201    1.358   .     A
C196   N197    1.357   1_556 A
N197   N198    1.331   .     A
N197   C196    1.357   1_554 A
N198   C199    1.357   1_554 A
C199   N200    1.359   .     A
C199   C202    1.476   .     S
C199   N198    1.357   1_556 A
N200   N201    1.333   .     A
C202   C203    1.404   .     A
C202   C207    1.405   1_556 A
C203   C204    1.398   .     A
C203   H212    1.083   .     S
C204   C205    1.404   .     A
C204   H213    1.083   .     S
C205   C206    1.402   1_556 A
C206   C207    1.398   .     A
C206   H214    1.083   .     S
C206   C205    1.402   1_554 A
C207   H215    1.083   .     S
C207   C202    1.405   1_554 A
C216   C221    1.408   .     A
C216   C222    1.484   .     S
C216   C217    1.407   1_554 A
C217   C218    1.396   .     A
C217   H234    1.083   .     S
C217   C216    1.407   1_556 A
C218   H235    1.083   .     S
C218   C219    1.400   1_556 A
C219   C220    1.400   .     A
C219   C218    1.400   1_554 A
C220   C221    1.401   .     A
C220   H236    1.083   .     S
C221   H237    1.082   .     S
C222   N223    1.359   .     A
C222   N227    1.358   1_554 A
N223   N224    1.333   .     A
N224   C225    1.359   1_554 A
C225   N226    1.358   .     A
C225   C228    1.484   .     S
C225   N224    1.359   1_556 A
N226   N227    1.331   .     A
N227   C222    1.358   1_556 A
C228   C229    1.408   .     A
C228   C233    1.408   1_556 A
C229   C230    1.398   .     A
C229   H238    1.083   .     S
C230   C231    1.399   .     A
C230   H239    1.083   .     S
C231   C232    1.400   1_556 A
C231   C34     1.464   1_556 S
C232   C233    1.399   .     A
C232   H240    1.083   .     S
C232   C231    1.400   1_554 A
C233   H241    1.083   .     S
C233   C228    1.408   1_554 A
C242   C243    1.403   .     A
C242   C247    1.406   1_556 A
C242   C248    1.477   1_556 S
C243   C244    1.389   .     A
C243   H260    1.083   .     S
C244   C245    1.403   .     A
C244   H261    1.083   .     S
C245   C246    1.407   1_556 A
C246   C247    1.406   .     A
C246   H262    1.083   .     S
C246   C245    1.407   1_554 A
C247   H263    1.083   .     S
C247   C242    1.406   1_554 A
C248   N249    1.360   .     A
C248   C242    1.477   1_554 S
C248   N253    1.356   1_554 A
N249   N250    1.336   .     A
N250   C251    1.361   .     A
C251   C254    1.483   .     S
C251   N252    1.356   1_554 A
N252   N253    1.327   .     A
N252   C251    1.356   1_556 A
N253   C248    1.356   1_556 A
C254   C259    1.409   .     A
C254   C255    1.405   1_554 A
C255   C256    1.389   .     A
C255   H264    1.083   .     S
C255   C254    1.405   1_556 A
C256   H265    1.083   .     S
C256   C257    1.400   1_556 A
C257   C258    1.405   .     A
C257   C256    1.400   1_554 A
C257   C8      1.473   1_554 S
C258   C259    1.406   .     A
C258   H266    1.083   .     S
C259   H267    1.083   .     S
C268   C273    1.405   .     A
C268   C274    1.483   .     S
C268   C269    1.409   1_554 A
C269   C270    1.406   .     A
C269   H286    1.083   .     S
C269   C268    1.409   1_556 A
C270   H287    1.083   .     S
C270   C271    1.405   1_556 A
C271   C272    1.401   .     A
C271   C270    1.405   1_554 A
C272   C273    1.389   .     A
C272   H288    1.083   .     S
C273   H289    1.083   .     S
C274   N275    1.356   .     A
C274   N279    1.361   1_554 A
N275   N276    1.327   .     A
N276   C277    1.355   .     A
C277   C280    1.477   .     S
C277   N278    1.360   1_554 A
N278   N279    1.336   .     A
N278   C277    1.360   1_556 A
N279   C274    1.361   1_556 A
C280   C285    1.403   .     A
C280   C281    1.407   1_554 A
C281   C282    1.406   .     A
C281   H290    1.083   .     S
C281   C280    1.407   1_556 A
C282   H291    1.083   .     S
C282   C283    1.407   1_556 A
C283   C284    1.402   .     A
C283   C282    1.407   1_554 A
C284   C285    1.389   .     A
C284   H292    1.083   .     S
C285   H293    1.083   .     S
