data_kag+N106+E225
_audit_creation_date              2025-01-21
_audit_creation_method            'Materials Studio'
_symmetry_space_group_name_H-M    'P1'
_symmetry_Int_Tables_number       1
_symmetry_cell_setting            triclinic
loop_
_symmetry_equiv_pos_as_xyz
  x,y,z
_cell_length_a                    42.2556
_cell_length_b                    43.0735
_cell_length_c                    18.8409
_cell_angle_alpha                 89.4507
_cell_angle_beta                  82.5346
_cell_angle_gamma                 125.8425
loop_
_atom_site_label
_atom_site_type_symbol
_atom_site_fract_x
_atom_site_fract_y
_atom_site_fract_z
_atom_site_U_iso_or_equiv
_atom_site_adp_type
_atom_site_occupancy
Y0     Y     0.52686   0.54951  -0.01640   0.00000  Uiso   1.00
Y1     Y     0.48738   0.46069   1.01248   0.00000  Uiso   1.00
O2     O     0.57930   0.54884  -0.05247   0.00000  Uiso   1.00
O3     O     0.51844   0.50364   0.91264   0.00000  Uiso   1.00
C4     C     0.46302   0.38799   1.04755   0.00000  Uiso   1.00
O5     O     0.45905   0.45398   0.91425   0.00000  Uiso   1.00
O6     O     0.54256   0.60689   0.01305   0.00000  Uiso   1.00
O7     O     0.54768   0.60001   0.90311   0.00000  Uiso   1.00
O8     O     0.55367   0.49066   1.00398   0.00000  Uiso   1.00
O9     O     0.49586   0.50653   0.08342   0.00000  Uiso   1.00
O10    O     0.55539   0.55597   0.08148   0.00000  Uiso   1.00
O11    O     0.46069   0.51946  -0.00972   0.00000  Uiso   1.00
C12    C     0.58326   0.52347   0.97124   0.00000  Uiso   1.00
O13    O     0.43518   0.46177   1.04889   0.00000  Uiso   1.00
C14    C     0.48605   0.48353   0.87823   0.00000  Uiso   1.00
O15    O     0.46794   0.40192   0.98470   0.00000  Uiso   1.00
O16    O     0.47096   0.41189   0.09308   0.00000  Uiso   1.00
C17    C     0.55182   0.62247  -0.05030   0.00000  Uiso   1.00
C18    C     0.43114   0.48687   0.02385   0.00000  Uiso   1.00
C19    C     0.52831   0.52652   0.11765   0.00000  Uiso   1.00
Y20    Y     0.97293   0.51176   0.00783   0.00000  Uiso   1.00
Y21    Y     0.04164   0.50122   1.00928   0.00000  Uiso   1.00
O22    O     0.02655   0.57351  -0.00107   0.00000  Uiso   1.00
O23    O     1.02619   0.52709   0.92798   0.00000  Uiso   1.00
C24    C     0.10418   0.50134   1.02665   0.00000  Uiso   1.00
O25    O     0.03288   0.48344   0.89659   0.00000  Uiso   1.00
O26    O     0.91053   0.49297   0.04022   0.00000  Uiso   1.00
O27    O     0.94320   0.53018   0.94502   0.00000  Uiso   1.00
O28    O     0.06736   0.56190   1.03726   0.00000  Uiso   1.00
O29    O    -0.01181   0.48562   0.08902   0.00000  Uiso   1.00
O30    O     0.98090   0.52881   0.12102   0.00000  Uiso   1.00
O31    O     0.94774   0.45144  -0.02157   0.00000  Uiso   1.00
C32    C     0.05894   0.58506   1.02102   0.00000  Uiso   1.00
O33    O     0.98756   0.43957   1.02064   0.00000  Uiso   1.00
C34    C     0.02308   0.50312   0.87733   0.00000  Uiso   1.00
O35    O     0.10349   0.51899   0.97391   0.00000  Uiso   1.00
O36    O     0.07214   0.48322   0.07095   0.00000  Uiso   1.00
C37    C     0.91052   0.51118  -0.01247   0.00000  Uiso   1.00
C38    C     0.95580   0.42823  -0.00377   0.00000  Uiso   1.00
C39    C    -0.00920   0.50919   0.14013   0.00000  Uiso   1.00
Y40    Y     0.48863   0.02730   1.01898   0.00000  Uiso   1.00
Y41    Y     0.52614   0.98260  -0.02055   0.00000  Uiso   1.00
O42    O     0.43325   0.96644   1.02886   0.00000  Uiso   1.00
O43    O     0.48634  -0.02052   0.07628   0.00000  Uiso   1.00
C44    C     0.54762   0.93867  -0.07557   0.00000  Uiso   1.00
O45    O     0.54042   0.98922   0.09253   0.00000  Uiso   1.00
O46    O     0.46847   0.06516   1.00941   0.00000  Uiso   1.00
O47    O     0.47882   0.05587   0.11060   0.00000  Uiso   1.00
O48    O     0.46133   0.94142  -0.03242   0.00000  Uiso   1.00
O49    O     0.52826   1.03031   0.92214   0.00000  Uiso   1.00
O50    O     0.47432   0.02086   0.90585   0.00000  Uiso   1.00
O51    O     0.55330   0.06804   1.03148   0.00000  Uiso   1.00
C52    C     0.43058   0.93931  -0.00452   0.00000  Uiso   1.00
O53    O     0.58124   0.04372  -0.03253   0.00000  Uiso   1.00
C54    C     0.51219  -0.01257   0.12249   0.00000  Uiso   1.00
O55    O     0.54849   0.94663  -0.01139   0.00000  Uiso   1.00
O56    O     0.53687   0.95459   0.88778   0.00000  Uiso   1.00
C57    C     0.46953   0.07308   1.07364   0.00000  Uiso   1.00
C58    C     0.58402   0.07078   1.00117   0.00000  Uiso   1.00
C59    C     0.50245   0.02247   0.87593   0.00000  Uiso   1.00
C60    C     0.52900   0.51704   0.19263   0.00000  Uiso   1.00
C61    C     0.49360   0.49197   0.24111   0.00000  Uiso   1.00
C62    C     0.49441   0.48749   0.31452   0.00000  Uiso   1.00
C63    C     0.53075   0.50785   0.34022   0.00000  Uiso   1.00
C64    C     0.56600   0.53091   0.29097   0.00000  Uiso   1.00
C65    C     0.56522   0.53595   0.21802   0.00000  Uiso   1.00
C66    C     0.50691   0.50691   0.46277   0.00000  Uiso   1.00
H67    H     0.54898   0.53340   0.77341   0.00000  Uiso   1.00
H68    H     0.54751   0.54250   0.64514   0.00000  Uiso   1.00
H69    H     0.42014   0.46456   0.68633   0.00000  Uiso   1.00
H70    H     0.42140   0.45477   0.81427   0.00000  Uiso   1.00
H71    H     0.52765   0.49888   0.55106   0.00000  Uiso   1.00
O72    O     0.48124   0.50641   0.58285   0.00000  Uiso   1.00
O73    O     0.53318   0.50455   0.41330   0.00000  Uiso   1.00
C74    C     0.48531   0.49305   0.80331   0.00000  Uiso   1.00
C75    C     0.52071   0.51832   0.75498   0.00000  Uiso   1.00
C76    C     0.51991   0.52311   0.68168   0.00000  Uiso   1.00
C77    C     0.48359   0.50281   0.65589   0.00000  Uiso   1.00
C78    C     0.44832   0.47951   0.70504   0.00000  Uiso   1.00
C79    C     0.44910   0.47414   0.77789   0.00000  Uiso   1.00
C80    C     0.50751   0.50410   0.53325   0.00000  Uiso   1.00
H81    H     0.46682   0.46825   0.35115   0.00000  Uiso   1.00
H82    H     0.59417   0.54592   0.30969   0.00000  Uiso   1.00
H83    H     0.46530   0.47689   0.22273   0.00000  Uiso   1.00
H84    H     0.48676   0.51211   0.44489   0.00000  Uiso   1.00
H85    H     0.59293   0.55516   0.18154   0.00000  Uiso   1.00
C86    C     1.01193   0.50297   0.80650   0.00000  Uiso   1.00
C87    C     1.01005   0.47756   0.75808   0.00000  Uiso   1.00
C88    C     1.00116   0.47861   0.68968   0.00000  Uiso   1.00
C89    C    -0.00566   0.50538   0.66843   0.00000  Uiso   1.00
C90    C    -0.00567   0.52935   0.71803   0.00000  Uiso   1.00
C91    C     0.00349   0.52851   0.78636   0.00000  Uiso   1.00
C92    C     0.00981   0.50652   0.54263   0.00000  Uiso   1.00
H93    H    -0.00393   0.55372   0.24586   0.00000  Uiso   1.00
H94    H     0.01115   0.55158   0.36601   0.00000  Uiso   1.00
H95    H     1.02436   0.46196   0.31560   0.00000  Uiso   1.00
H96    H     1.00956   0.46420   0.19437   0.00000  Uiso   1.00
H97    H    -0.02477   0.50214   0.46816   0.00000  Uiso   1.00
O98    O     0.02530   0.50278   0.41936   0.00000  Uiso   1.00
O99    O    -0.01422   0.50762   0.59991   0.00000  Uiso   1.00
C100   C     0.00111   0.50871   0.21152   0.00000  Uiso   1.00
C101   C     0.00193   0.53339   0.26059   0.00000  Uiso   1.00
C102   C     0.01015   0.53192   0.32939   0.00000  Uiso   1.00
C103   C     0.01714   0.50527   0.35057   0.00000  Uiso   1.00
C104   C     1.01802   0.48187   0.30051   0.00000  Uiso   1.00
C105   C     0.00968   0.48325   0.23161   0.00000  Uiso   1.00
C106   C     0.00134   0.50410   0.47644   0.00000  Uiso   1.00
H107   H     0.99949   0.45854   0.65342   0.00000  Uiso   1.00
H108   H    -0.01196   0.54931   0.70298   0.00000  Uiso   1.00
H109   H     1.01562   0.45702   0.77299   0.00000  Uiso   1.00
H110   H     0.03598   0.50857   0.55079   0.00000  Uiso   1.00
H111   H     0.00437   0.54808   0.82312   0.00000  Uiso   1.00
C112   C     0.50491  -0.01038   0.20018   0.00000  Uiso   1.00
C113   C     0.52993  -0.00874   0.24463   0.00000  Uiso   1.00
C114   C     0.52190  -0.00906   0.31889   0.00000  Uiso   1.00
C115   C     0.48924   0.99019   0.35009   0.00000  Uiso   1.00
C116   C     0.46423   0.98842   0.30555   0.00000  Uiso   1.00
C117   C     0.47196   0.98819   0.23112   0.00000  Uiso   1.00
C118   C     0.51050   0.00702   0.46397   0.00000  Uiso   1.00
H119   H     0.45972   1.01834   0.77582   0.00000  Uiso   1.00
H120   H     0.47349   1.01820   0.64639   0.00000  Uiso   1.00
H121   H     0.57536   0.02116   0.67047   0.00000  Uiso   1.00
H122   H     0.56248   0.02305   0.80096   0.00000  Uiso   1.00
H123   H     0.47273   0.97942   0.56219   0.00000  Uiso   1.00
O124   O     0.53470   0.01921   0.57424   0.00000  Uiso   1.00
O125   O     0.47900   0.98822   0.42489   0.00000  Uiso   1.00
C126   C     0.50965   0.02003   0.79832   0.00000  Uiso   1.00
C127   C     0.48466   1.01831   0.75367   0.00000  Uiso   1.00
C128   C     0.49232   1.01775   0.67959   0.00000  Uiso   1.00
C129   C     0.52470   0.01795   0.64885   0.00000  Uiso   1.00
C130   C     0.54984   0.02010   0.69351   0.00000  Uiso   1.00
C131   C     0.54240   0.02106   0.76772   0.00000  Uiso   1.00
C132   C     0.50313   0.00025   0.53538   0.00000  Uiso   1.00
H133   H     0.54067  -0.00975   0.35183   0.00000  Uiso   1.00
H134   H     0.43854   0.98701   0.32883   0.00000  Uiso   1.00
H135   H     0.55519  -0.00820   0.22215   0.00000  Uiso   1.00
H136   H     0.54092   0.02788   0.43734   0.00000  Uiso   1.00
H137   H     0.45198   0.98646   0.19795   0.00000  Uiso   1.00
C138   C     0.39123   0.47821   1.03378   0.00000  Uiso   1.00
C139   C     0.38517   0.50290   0.99898   0.00000  Uiso   1.00
C140   C     0.34778   0.49517   1.00859   0.00000  Uiso   1.00
C141   C     0.31564   0.46286   0.05449   0.00000  Uiso   1.00
C142   C     0.32129   0.43741   0.08671   0.00000  Uiso   1.00
C143   C     0.35872   0.44506   0.07705   0.00000  Uiso   1.00
C144   C     0.27604   0.48578   1.06901   0.00000  Uiso   1.00
H145   H     0.11018   0.45888   0.12629   0.00000  Uiso   1.00
H146   H     0.17008   0.46388   0.14103   0.00000  Uiso   1.00
H147   H     0.23707   0.55300   0.96342   0.00000  Uiso   1.00
H148   H     0.17760   0.54788   0.94734   0.00000  Uiso   1.00
H149   H     0.21607   0.45328   0.05884   0.00000  Uiso   1.00
O150   O     0.24308   0.51444   1.06218   0.00000  Uiso   1.00
O151   O     0.27748   0.45404   0.06603   0.00000  Uiso   1.00
C152   C     0.13927   0.50285   0.03538   0.00000  Uiso   1.00
C153   C     0.13758   0.47912   0.08980   0.00000  Uiso   1.00
C154   C     0.17157   0.48175   0.09797   0.00000  Uiso   1.00
C155   C     0.20768   0.50839   1.05207   0.00000  Uiso   1.00
C156   C     0.20929   0.53209   0.99838   0.00000  Uiso   1.00
C157   C     0.17537   0.52907   0.98940   0.00000  Uiso   1.00
C158   C     0.24249   0.48156   0.06464   0.00000  Uiso   1.00
H159   H     0.34394   0.51425   0.97958   0.00000  Uiso   1.00
H160   H     0.29660   0.41179   0.12023   0.00000  Uiso   1.00
H161   H     0.40927   0.52809   0.96368   0.00000  Uiso   1.00
H162   H     0.30220   0.51436   1.07422   0.00000  Uiso   1.00
H163   H     0.36219   0.42511   0.10380   0.00000  Uiso   1.00
C164   C     0.92694   0.38701   0.98860   0.00000  Uiso   1.00
C165   C     0.90085   0.37584   0.93909   0.00000  Uiso   1.00
C166   C     0.87146   0.33697   0.93505   0.00000  Uiso   1.00
C167   C     0.86696   0.30845  -0.01821   0.00000  Uiso   1.00
C168   C     0.89418   0.31951   0.02869   0.00000  Uiso   1.00
C169   C     0.92402   0.35850   0.03217   0.00000  Uiso   1.00
C170   C     0.79896   0.26098   0.97926   0.00000  Uiso   1.00
H171   H     0.60046   0.13186   0.07260   0.00000  Uiso   1.00
H172   H     0.66364   0.19528   0.06275   0.00000  Uiso   1.00
H173   H     0.71970   0.15705   0.92009   0.00000  Uiso   1.00
H174   H     0.65643   0.09311   0.92955   0.00000  Uiso   1.00
H175   H     0.76952   0.20121  -0.01501   0.00000  Uiso   1.00
O176   O     0.73041   0.21870   0.98393   0.00000  Uiso   1.00
O177   O     0.83613   0.26913  -0.01745   0.00000  Uiso   1.00
C178   C     0.62338   0.10741   0.00175   0.00000  Uiso   1.00
C179   C     0.62628   0.13659   0.04000   0.00000  Uiso   1.00
C180   C     0.66229   0.17281   0.03471   0.00000  Uiso   1.00
C181   C     0.69636   0.18058   0.99262   0.00000  Uiso   1.00
C182   C     0.69405   0.15134   0.95522   0.00000  Uiso   1.00
C183   C     0.65779   0.11490   0.96018   0.00000  Uiso   1.00
C184   C     0.76698   0.22484  -0.01871   0.00000  Uiso   1.00
H185   H     0.85202   0.32918   0.89588   0.00000  Uiso   1.00
H186   H     0.89150   0.29783   0.06401   0.00000  Uiso   1.00
H187   H     0.90313   0.39722   0.90354   0.00000  Uiso   1.00
H188   H     0.79491   0.28372   0.97891   0.00000  Uiso   1.00
H189   H     0.94388   0.36636   0.07059   0.00000  Uiso   1.00
C190   C     0.87547   0.50924   0.97669   0.00000  Uiso   1.00
C191   C     0.87813   0.53445   0.92426   0.00000  Uiso   1.00
C192   C     0.84425   0.53159   0.91411   0.00000  Uiso   1.00
C193   C     0.80728   0.50328  -0.04387   0.00000  Uiso   1.00
C194   C     0.80473   0.47792   0.00739   0.00000  Uiso   1.00
C195   C     0.83851   0.48113   0.01840   0.00000  Uiso   1.00
C196   C     0.77258   0.52997  -0.06242   0.00000  Uiso   1.00
H197   H     0.60550   0.48288   0.03215   0.00000  Uiso   1.00
H198   H     0.67078   0.49692   0.01647   0.00000  Uiso   1.00
H199   H     0.71728   0.59771   0.87118   0.00000  Uiso   1.00
H200   H     0.65168   0.58453   0.88887   0.00000  Uiso   1.00
H201   H     0.71308   0.49613  -0.07306   0.00000  Uiso   1.00
O202   O     0.73715   0.55666   0.92848   0.00000  Uiso   1.00
O203   O     0.77203   0.49719  -0.05553   0.00000  Uiso   1.00
C204   C     0.62315   0.53212  -0.03939   0.00000  Uiso   1.00
C205   C     0.62943   0.50779  -0.00394   0.00000  Uiso   1.00
C206   C     0.66685   0.51561  -0.01364   0.00000  Uiso   1.00
C207   C     0.69882   0.54753  -0.06060   0.00000  Uiso   1.00
C208   C     0.69285   0.57246   0.90587   0.00000  Uiso   1.00
C209   C     0.65540   0.56487   0.91607   0.00000  Uiso   1.00
C210   C     0.73900   0.52513  -0.06951   0.00000  Uiso   1.00
H211   H     0.84666   0.55067   0.87245   0.00000  Uiso   1.00
H212   H     0.77632   0.45553   0.03895   0.00000  Uiso   1.00
H213   H     0.90626   0.55614   0.89099   0.00000  Uiso   1.00
H214   H     0.79882   0.55862   0.94210   0.00000  Uiso   1.00
H215   H     0.83556   0.46111   0.05872   0.00000  Uiso   1.00
C216   C     0.39104   0.90406   0.98936   0.00000  Uiso   1.00
C217   C     0.35664   0.90227   1.00812   0.00000  Uiso   1.00
C218   C     0.31969   0.86944   0.99856   0.00000  Uiso   1.00
C219   C     0.31644   0.83742  -0.02845   0.00000  Uiso   1.00
C220   C     0.35072   0.83933  -0.04669   0.00000  Uiso   1.00
C221   C     0.38757   0.87208  -0.03767   0.00000  Uiso   1.00
C222   C     0.24515   0.79268  -0.00043   0.00000  Uiso   1.00
H223   H     0.13408   0.62079   0.04794   0.00000  Uiso   1.00
H224   H     0.18409   0.68943   0.05189   0.00000  Uiso   1.00
H225   H     0.10136   0.71265   1.01239   0.00000  Uiso   1.00
H226   H     0.05059   0.64346   1.00767   0.00000  Uiso   1.00
H227   H     0.21349   0.74400  -0.05495   0.00000  Uiso   1.00
O228   O     0.17539   0.74579   1.03137   0.00000  Uiso   1.00
O229   O     0.28088   0.80433  -0.04322   0.00000  Uiso   1.00
C230   C     0.08841   0.62664   0.02670   0.00000  Uiso   1.00
C231   C     0.12633   0.64034   0.03995   0.00000  Uiso   1.00
C232   C     0.15508   0.67960   0.04182   0.00000  Uiso   1.00
C233   C     0.14661   0.70613   0.03034   0.00000  Uiso   1.00
C234   C     0.10843   0.69254   1.02008   0.00000  Uiso   1.00
C235   C     0.07961   0.65313   1.01739   0.00000  Uiso   1.00
C236   C     0.21182   0.75999  -0.01202   0.00000  Uiso   1.00
H237   H     0.29418   0.86980   1.01037   0.00000  Uiso   1.00
H238   H     0.34878   0.81517  -0.06830   0.00000  Uiso   1.00
H239   H     0.35839   0.92656   1.02852   0.00000  Uiso   1.00
H240   H     0.24410   0.80795   1.04426   0.00000  Uiso   1.00
H241   H     0.41339   0.87238  -0.05243   0.00000  Uiso   1.00
C242   C     0.55642   0.91213  -0.10324   0.00000  Uiso   1.00
C243   C     0.56462   0.89312  -0.05632   0.00000  Uiso   1.00
C244   C     0.56897   0.86498  -0.07983   0.00000  Uiso   1.00
C245   C     0.56565   0.85561   0.84870   0.00000  Uiso   1.00
C246   C     0.55795   0.87497   0.80182   0.00000  Uiso   1.00
C247   C     0.55365   0.90323   0.82530   0.00000  Uiso   1.00
C248   C     0.59083   0.81878   0.85412   0.00000  Uiso   1.00
H249   H     0.56279   0.65910   0.81944   0.00000  Uiso   1.00
H250   H     0.58620   0.72624   0.79425   0.00000  Uiso   1.00
H251   H     0.59812   0.74378   0.01642   0.00000  Uiso   1.00
H252   H     0.57389   0.67671   0.04268   0.00000  Uiso   1.00
H253   H     0.55641   0.76023   0.83964   0.00000  Uiso   1.00
O254   O     0.60675   0.77791   0.89220   0.00000  Uiso   1.00
O255   O     0.56578   0.82484   0.82478   0.00000  Uiso   1.00
C256   C     0.56607   0.66267   0.93313   0.00000  Uiso   1.00
C257   C     0.56998   0.67721   0.86296   0.00000  Uiso   1.00
C258   C     0.58310   0.71533   0.84864   0.00000  Uiso   1.00
C259   C     0.59265   0.73937   0.90437   0.00000  Uiso   1.00
C260   C     0.59001   0.72522  -0.02644   0.00000  Uiso   1.00
C261   C     0.57624   0.68705  -0.01176   0.00000  Uiso   1.00
C262   C     0.58287   0.78390   0.85817   0.00000  Uiso   1.00
H263   H     0.57345   0.84964  -0.04133   0.00000  Uiso   1.00
H264   H     0.55470   0.86764   0.74715   0.00000  Uiso   1.00
H265   H     0.56638   0.89909  -0.00067   0.00000  Uiso   1.00
H266   H     0.61635   0.84207  -0.12461   0.00000  Uiso   1.00
H267   H     0.54721   0.91740   0.78812   0.00000  Uiso   1.00
C268   C     0.44942   0.34804   0.06467   0.00000  Uiso   1.00
C269   C     0.44939   0.33496   0.13328   0.00000  Uiso   1.00
C270   C     0.43683   0.29705   0.14797   0.00000  Uiso   1.00
C271   C     0.42414   0.27174   1.09410   0.00000  Uiso   1.00
C272   C     0.42323   0.28459   1.02655   0.00000  Uiso   1.00
C273   C     0.43620   0.32247   1.01150   0.00000  Uiso   1.00
C274   C     0.43371   0.22706   0.14186   0.00000  Uiso   1.00
H275   H     0.45178   0.11382   0.99936   0.00000  Uiso   1.00
H276   H     0.44367   0.16238   1.04163   0.00000  Uiso   1.00
H277   H     0.46420   0.14472   0.25173   0.00000  Uiso   1.00
H278   H     0.47247   0.09570   0.20906   0.00000  Uiso   1.00
H279   H     0.40013   0.16877   1.12495   0.00000  Uiso   1.00
O280   O     0.45048   0.18609   0.17651   0.00000  Uiso   1.00
O281   O     0.41035   0.23326   1.10647   0.00000  Uiso   1.00
C282   C     0.46202   0.10052   1.10133   0.00000  Uiso   1.00
C283   C     0.45364   0.11961   1.05504   0.00000  Uiso   1.00
C284   C     0.44875   0.14727   1.07948   0.00000  Uiso   1.00
C285   C     0.45192   0.15625   0.15120   0.00000  Uiso   1.00
C286   C     0.46071   0.13746   0.19702   0.00000  Uiso   1.00
C287   C     0.46542   0.10959   0.17263   0.00000  Uiso   1.00
C288   C     0.42553   0.19209   1.14655   0.00000  Uiso   1.00
H289   H     0.43649   0.28732   0.20141   0.00000  Uiso   1.00
H290   H     0.41289   0.26519   0.98511   0.00000  Uiso   1.00
H291   H     0.45909   0.35399   0.17537   0.00000  Uiso   1.00
H292   H     0.46007   0.25064   0.16076   0.00000  Uiso   1.00
H293   H     0.43558   0.33166   0.95831   0.00000  Uiso   1.00
loop_
_geom_bond_atom_site_label_1
_geom_bond_atom_site_label_2
_geom_bond_distance
_geom_bond_site_symmetry_2
_ccdc_geom_bond_type
Y0     O2      2.249   .     S
Y0     O6      2.249   .     S
Y0     O9      2.266   .     S
Y0     O10     2.264   .     S
Y0     O11     2.275   .     S
Y0     O3      2.273   1_554 S
Y0     O7      2.270   1_554 S
Y1     O3      2.265   .     S
Y1     O5      2.263   .     S
Y1     O8      2.277   .     S
Y1     O13     2.251   .     S
Y1     O15     2.249   .     S
Y1     O9      2.272   1_556 S
Y1     O16     2.272   1_556 S
O2     C12     1.283   1_554 A
O3     C14     1.377   .     S
O3     Y0      2.273   1_556 S
C4     O15     1.258   .     A
C4     O16     1.263   1_556 A
C4     C268    1.476   1_556 S
O5     C14     1.210   .     D
O6     C17     1.258   .     A
O7     Y0      2.270   1_556 S
O7     C17     1.263   1_556 A
O8     C12     1.287   .     A
O9     C19     1.377   .     S
O9     Y1      2.272   1_554 S
O10    C19     1.210   .     D
O11    C18     1.286   .     A
C12    O2      1.283   1_556 A
C12    C204    1.482   1_556 S
O13    C18     1.284   1_556 A
C14    C74     1.475   .     S
O16    Y1      2.272   1_554 S
O16    C4      1.263   1_554 A
C17    O7      1.263   1_554 A
C17    C256    1.476   1_554 S
C18    O13     1.284   1_554 A
C18    C138    1.482   1_554 S
C19    C60     1.476   .     S
Y20    O26     2.248   .     S
Y20    O30     2.264   .     S
Y20    O31     2.265   .     S
Y20    O22     2.252   1_655 S
Y20    O23     2.264   1_554 S
Y20    O27     2.268   1_554 S
Y20    O29     2.258   1_655 S
Y21    O25     2.266   .     S
Y21    O28     2.267   .     S
Y21    O35     2.248   .     S
Y21    O23     2.257   1_455 S
Y21    O29     2.265   1_556 S
Y21    O33     2.253   1_455 S
Y21    O36     2.270   1_556 S
O22    Y20     2.252   1_455 S
O22    C32     1.284   1_554 A
O23    Y20     2.264   1_556 S
O23    Y21     2.257   1_655 S
O23    C34     1.374   1_655 S
C24    O35     1.259   .     A
C24    O36     1.263   1_556 A
C24    C152    1.477   1_556 S
O25    C34     1.211   .     D
O26    C37     1.259   .     A
O27    Y20     2.268   1_556 S
O27    C37     1.263   1_556 A
O28    C32     1.286   .     A
O29    C39     1.373   .     S
O29    Y20     2.258   1_455 S
O29    Y21     2.265   1_554 S
O30    C39     1.211   1_655 D
O31    C38     1.285   .     A
C32    O22     1.284   1_556 A
C32    C230    1.482   1_556 S
O33    Y21     2.253   1_655 S
O33    C38     1.284   1_556 A
C34    O23     1.374   1_455 S
C34    C86     1.471   1_455 S
O36    Y21     2.270   1_554 S
O36    C24     1.263   1_554 A
C37    O27     1.263   1_554 A
C37    C190    1.475   1_554 S
C38    O33     1.284   1_554 A
C38    C164    1.475   1_554 S
C39    C100    1.470   .     S
C39    O30     1.211   1_455 D
Y40    O46     2.254   .     S
Y40    O50     2.266   .     S
Y40    O51     2.272   .     S
Y40    O42     2.253   1_545 S
Y40    O43     2.262   1_556 S
Y40    O47     2.262   1_556 S
Y40    O49     2.258   1_545 S
Y41    O45     2.265   .     S
Y41    O48     2.275   .     S
Y41    O55     2.252   .     S
Y41    O43     2.260   1_565 S
Y41    O49     2.261   1_554 S
Y41    O53     2.253   1_565 S
Y41    O56     2.263   1_554 S
O42    Y40     2.253   1_565 S
O42    C52     1.285   1_556 A
O43    C54     1.372   .     S
O43    Y40     2.262   1_554 S
O43    Y41     2.260   1_545 S
C44    O55     1.259   .     A
C44    C242    1.475   .     S
C44    O56     1.261   1_554 A
O45    C54     1.210   1_565 D
O46    C57     1.260   .     A
O47    Y40     2.262   1_554 S
O47    C57     1.261   1_554 A
O48    C52     1.287   .     A
O49    Y40     2.258   1_565 S
O49    Y41     2.261   1_556 S
O49    C59     1.372   1_565 S
O50    C59     1.210   .     D
O51    C58     1.285   .     A
C52    O42     1.285   1_554 A
C52    C216    1.481   1_554 S
O53    Y41     2.253   1_545 S
O53    C58     1.284   1_554 A
C54    C112    1.472   .     S
C54    O45     1.210   1_545 D
O56    Y41     2.263   1_556 S
O56    C44     1.261   1_556 A
C57    C282    1.476   .     S
C57    O47     1.261   1_556 A
C58    O53     1.284   1_556 A
C58    C178    1.479   1_556 S
C59    C126    1.472   .     S
C59    O49     1.372   1_545 S
C60    C61     1.404   .     A
C60    C65     1.404   .     A
C61    C62     1.402   .     A
C61    H83     1.083   .     S
C62    C63     1.409   .     A
C62    H81     1.082   .     S
C63    C64     1.399   .     A
C63    O73     1.406   .     S
C64    C65     1.397   .     A
C64    H82     1.082   .     S
C65    H85     1.083   .     S
C66    O73     1.406   .     S
C66    C80     1.337   .     D
C66    H84     1.088   .     S
H67    C75     1.083   .     S
H68    C76     1.082   .     S
H69    C78     1.083   .     S
H70    C79     1.083   .     S
H71    C80     1.088   .     S
O72    C77     1.406   .     S
O72    C80     1.406   .     S
C74    C75     1.404   .     A
C74    C79     1.404   .     A
C75    C76     1.402   .     A
C76    C77     1.409   .     A
C77    C78     1.399   .     A
C78    C79     1.398   .     A
C86    C87     1.404   .     A
C86    C91     1.403   1_655 A
C86    C34     1.471   1_655 S
C87    C88     1.396   .     A
C87    H109    1.083   .     S
C88    H107    1.083   .     S
C88    C89     1.408   1_655 A
C89    C90     1.399   .     A
C89    O99     1.403   .     S
C89    C88     1.408   1_455 A
C90    C91     1.398   .     A
C90    H108    1.083   .     S
C91    H111    1.083   .     S
C91    C86     1.403   1_455 A
C92    O99     1.404   .     S
C92    C106    1.330   .     D
C92    H110    1.088   .     S
H93    C101    1.083   .     S
H94    C102    1.083   .     S
H95    C104    1.083   .     S
H96    C105    1.083   1_655 S
H97    C106    1.088   .     S
O98    C103    1.403   .     S
O98    C106    1.404   .     S
C100   C101    1.404   .     A
C100   C105    1.403   .     A
C101   C102    1.395   .     A
C102   C103    1.408   .     A
C103   C104    1.400   1_455 A
C104   C103    1.400   1_655 A
C104   C105    1.398   1_655 A
C105   H96     1.083   1_455 S
C105   C104    1.398   1_455 A
C112   C113    1.403   .     A
C112   C117    1.403   1_545 A
C113   C114    1.394   .     A
C113   H135    1.083   .     S
C114   H133    1.082   .     S
C114   C115    1.410   1_545 A
C115   C116    1.401   .     A
C115   O125    1.406   .     S
C115   C114    1.410   1_565 A
C116   C117    1.399   .     A
C116   H134    1.083   .     S
C117   H137    1.083   .     S
C117   C112    1.403   1_565 A
C118   C132    1.330   .     D
C118   H136    1.088   .     S
C118   O125    1.405   1_545 S
H119   C127    1.083   .     S
H120   C128    1.082   .     S
H121   C130    1.083   .     S
H122   C131    1.083   .     S
H123   C132    1.088   1_565 S
O124   C129    1.405   .     S
O124   C132    1.404   .     S
O125   C118    1.405   1_565 S
C126   C131    1.403   .     A
C126   C127    1.403   1_545 A
C127   C128    1.395   .     A
C127   C126    1.403   1_565 A
C128   C129    1.410   1_565 A
C129   C130    1.401   .     A
C129   C128    1.410   1_545 A
C130   C131    1.399   .     A
C132   H123    1.088   1_545 S
C138   C139    1.406   .     A
C138   C143    1.407   1_556 A
C138   C18     1.482   1_556 S
C139   C140    1.396   .     A
C139   H161    1.083   .     S
C140   H159    1.082   .     S
C140   C141    1.410   1_556 A
C141   C142    1.399   .     A
C141   O151    1.408   .     S
C141   C140    1.410   1_554 A
C142   C143    1.399   .     A
C142   H160    1.083   .     S
C143   H163    1.083   .     S
C143   C138    1.407   1_554 A
C144   H162    1.088   .     S
C144   O151    1.405   1_556 S
C144   C158    1.333   1_556 D
H145   C153    1.083   .     S
H146   C154    1.083   .     S
H147   C156    1.083   .     S
H148   C157    1.083   .     S
H149   C158    1.088   .     S
O150   C155    1.400   .     S
O150   C158    1.402   1_556 S
O151   C144    1.405   1_554 S
C152   C153    1.406   .     A
C152   C157    1.405   1_554 A
C152   C24     1.477   1_554 S
C153   C154    1.402   .     A
C154   C155    1.407   1_554 A
C155   C156    1.397   .     A
C155   C154    1.407   1_556 A
C156   C157    1.395   .     A
C157   C152    1.405   1_556 A
C158   C144    1.333   1_554 D
C158   O150    1.402   1_554 S
C164   C165    1.404   .     A
C164   C169    1.405   1_556 A
C164   C38     1.475   1_556 S
C165   C166    1.394   .     A
C165   H187    1.083   .     S
C166   H185    1.082   .     S
C166   C167    1.408   1_556 A
C167   C168    1.400   .     A
C167   O177    1.406   .     S
C167   C166    1.408   1_554 A
C168   C169    1.400   .     A
C168   H186    1.083   .     S
C169   H189    1.083   .     S
C169   C164    1.405   1_554 A
C170   H188    1.089   .     S
C170   O177    1.405   1_556 S
C170   C184    1.332   1_556 D
H171   C179    1.083   .     S
H172   C180    1.083   .     S
H173   C182    1.082   .     S
H174   C183    1.083   .     S
H175   C184    1.087   .     S
O176   C181    1.400   .     S
O176   C184    1.401   1_556 S
O177   C170    1.405   1_554 S
C178   C179    1.405   .     A
C178   C183    1.408   1_554 A
C178   C58     1.479   1_554 S
C179   C180    1.392   .     A
C180   C181    1.395   1_554 A
C181   C182    1.408   .     A
C181   C180    1.395   1_556 A
C182   C183    1.401   .     A
C183   C178    1.408   1_556 A
C184   C170    1.332   1_554 D
C184   O176    1.401   1_554 S
C190   C191    1.405   .     A
C190   C195    1.404   1_556 A
C190   C37     1.475   1_556 S
C191   C192    1.402   .     A
C191   H213    1.083   .     S
C192   H211    1.082   .     S
C192   C193    1.408   1_556 A
C193   C194    1.397   .     A
C193   O203    1.402   .     S
C193   C192    1.408   1_554 A
C194   C195    1.395   .     A
C194   H212    1.083   .     S
C195   H215    1.083   .     S
C195   C190    1.404   1_554 A
C196   O203    1.403   .     S
C196   C210    1.333   .     D
C196   H214    1.088   1_554 S
H197   C205    1.083   .     S
H198   C206    1.081   .     S
H199   C208    1.083   .     S
H200   C209    1.083   .     S
H201   C210    1.088   .     S
O202   C207    1.409   1_556 S
O202   C210    1.406   1_556 S
C204   C205    1.405   .     A
C204   C209    1.407   1_554 A
C204   C12     1.482   1_554 S
C205   C206    1.395   .     A
C206   C207    1.410   .     A
C207   O202    1.409   1_554 S
C207   C208    1.401   1_554 A
C208   C209    1.400   .     A
C208   C207    1.401   1_556 A
C209   C204    1.407   1_556 A
C210   O202    1.406   1_554 S
H214   C196    1.088   1_556 S
C216   C217    1.406   .     A
C216   C221    1.405   1_556 A
C216   C52     1.481   1_556 S
C217   C218    1.401   .     A
C217   H239    1.083   .     S
C218   H237    1.081   .     S
C218   C219    1.411   1_556 A
C219   C220    1.398   .     A
C219   O229    1.405   .     S
C219   C218    1.411   1_554 A
C220   C221    1.394   .     A
C220   H238    1.083   .     S
C221   H241    1.083   .     S
C221   C216    1.405   1_554 A
C222   O229    1.404   .     S
C222   C236    1.333   .     D
C222   H240    1.086   1_554 S
H223   C231    1.083   .     S
H224   C232    1.083   .     S
H225   C234    1.083   .     S
H226   C235    1.083   .     S
H227   C236    1.090   .     S
O228   C233    1.404   1_556 S
O228   C236    1.404   1_556 S
C230   C231    1.406   .     A
C230   C235    1.408   1_554 A
C230   C32     1.482   1_554 S
C231   C232    1.394   .     A
C232   C233    1.405   .     A
C233   O228    1.404   1_554 S
C233   C234    1.400   1_554 A
C234   C235    1.401   .     A
C234   C233    1.400   1_556 A
C235   C230    1.408   1_556 A
C236   O228    1.404   1_554 S
H240   C222    1.086   1_556 S
C242   C243    1.404   .     A
C242   C247    1.404   1_554 A
C243   C244    1.396   .     A
C243   H265    1.083   .     S
C244   H263    1.082   .     S
C244   C245    1.410   1_554 A
C245   C246    1.400   .     A
C245   O255    1.407   .     S
C245   C244    1.410   1_556 A
C246   C247    1.399   .     A
C246   H264    1.082   .     S
C247   H267    1.083   .     S
C247   C242    1.404   1_556 A
C248   O255    1.403   .     S
C248   C262    1.332   .     D
C248   H266    1.088   1_556 S
H249   C257    1.083   .     S
H250   C258    1.082   .     S
H251   C260    1.083   .     S
H252   C261    1.083   .     S
H253   C262    1.088   .     S
O254   C259    1.401   .     S
O254   C262    1.402   .     S
C256   C257    1.405   .     A
C256   C261    1.405   1_556 A
C256   C17     1.476   1_556 S
C257   C258    1.401   .     A
C258   C259    1.407   .     A
C259   C260    1.397   1_556 A
C260   C261    1.395   .     A
C260   C259    1.397   1_554 A
C261   C256    1.405   1_554 A
H266   C248    1.088   1_554 S
C268   C269    1.405   .     A
C268   C273    1.405   1_554 A
C268   C4      1.476   1_554 S
C269   C270    1.401   .     A
C269   H291    1.083   .     S
C270   H289    1.082   .     S
C270   C271    1.409   1_554 A
C271   C272    1.397   .     A
C271   O281    1.403   .     S
C271   C270    1.409   1_556 A
C272   C273    1.395   .     A
C272   H290    1.083   .     S
C273   H293    1.083   .     S
C273   C268    1.405   1_556 A
C274   H292    1.088   .     S
C274   O281    1.403   1_554 S
C274   C288    1.332   1_554 D
H275   C283    1.083   .     S
H276   C284    1.083   .     S
H277   C286    1.083   .     S
H278   C287    1.083   .     S
H279   C288    1.089   .     S
O280   C285    1.406   .     S
O280   C288    1.403   1_554 S
O281   C274    1.403   1_556 S
C282   C283    1.404   .     A
C282   C287    1.404   1_556 A
C283   C284    1.396   .     A
C284   C285    1.411   1_556 A
C285   C286    1.400   .     A
C285   C284    1.411   1_554 A
C286   C287    1.399   .     A
C287   C282    1.404   1_554 A
C288   C274    1.332   1_556 D
C288   O280    1.403   1_556 S
