data_kag+N173+E28
_audit_creation_date              2025-01-21
_audit_creation_method            'Materials Studio'
_symmetry_space_group_name_H-M    'P1'
_symmetry_Int_Tables_number       1
_symmetry_cell_setting            triclinic
loop_
_symmetry_equiv_pos_as_xyz
  x,y,z
_cell_length_a                    42.3291
_cell_length_b                    42.1240
_cell_length_c                    19.0244
_cell_angle_alpha                 94.6370
_cell_angle_beta                  96.5980
_cell_angle_gamma                 119.9890
loop_
_atom_site_label
_atom_site_type_symbol
_atom_site_fract_x
_atom_site_fract_y
_atom_site_fract_z
_atom_site_U_iso_or_equiv
_atom_site_adp_type
_atom_site_occupancy
Gd0    Gd    0.49908   0.46649   0.98891   0.00000  Uiso   1.00
Gd1    Gd    0.56216   0.58595   0.02609   0.00000  Uiso   1.00
O2     O     0.55947   0.56745   0.13044   0.00000  Uiso   1.00
O3     O     0.52444   0.50972   0.08411   0.00000  Uiso   1.00
O4     O     0.47165   0.49710   0.02886   0.00000  Uiso   1.00
O5     O     0.49966   0.55661   1.00691   0.00000  Uiso   1.00
O6     O     0.51537   0.42713   0.95295   0.00000  Uiso   1.00
O7     O     0.50502   0.42959   0.06074   0.00000  Uiso   1.00
O8     O     0.49301   0.48626   0.88873   0.00000  Uiso   1.00
C9     C     0.51381   0.41432   1.01152   0.00000  Uiso   1.00
O10    O     0.53241   0.54604   0.92590   0.00000  Uiso   1.00
O11    O     0.56205   0.50187   0.99897   0.00000  Uiso   1.00
C12    C     0.47105   0.52588   0.01284   0.00000  Uiso   1.00
O13    O     0.59913   0.56436   0.00708   0.00000  Uiso   1.00
O14    O     0.53597   0.61902   0.04021   0.00000  Uiso   1.00
O15    O     0.56690   0.62788   0.95502   0.00000  Uiso   1.00
C16    C     0.53904   0.53461   0.13888   0.00000  Uiso   1.00
C17    C     0.54902   0.63813  -0.00851   0.00000  Uiso   1.00
C18    C     0.59383   0.53166   0.00436   0.00000  Uiso   1.00
C19    C     0.51287   0.51876   0.87632   0.00000  Uiso   1.00
Gd20   Gd    0.00104   0.55677   0.99693   0.00000  Uiso   1.00
Gd21   Gd    0.06669   0.50238   0.02090   0.00000  Uiso   1.00
O22    O     0.06013   0.51943   0.12874   0.00000  Uiso   1.00
O23    O     0.02616   0.54090   0.08609   0.00000  Uiso   1.00
O24    O     0.06101   0.58572   0.05510   0.00000  Uiso   1.00
O25    O     0.08837   0.56111   0.99576   0.00000  Uiso   1.00
O26    O     0.94333   0.53869   0.95652   0.00000  Uiso   1.00
O27    O     0.96391   0.55852   0.06976   0.00000  Uiso   1.00
O28    O     0.01903   0.55118   0.89296   0.00000  Uiso   1.00
C29    C     0.93634   0.54543   0.01757   0.00000  Uiso   1.00
O30    O     0.04724   0.52291   0.93108   0.00000  Uiso   1.00
O31    O     0.97426   0.49467   0.99586   0.00000  Uiso   1.00
C32    C     0.08827   0.58920   0.02651   0.00000  Uiso   1.00
O33    O     0.00470   0.46292   0.99749   0.00000  Uiso   1.00
O34    O     0.12728   0.53354   0.03569   0.00000  Uiso   1.00
O35    O     0.09727   0.49017   0.94491   0.00000  Uiso   1.00
C36    C     0.03960   0.53231   0.13912   0.00000  Uiso   1.00
C37    C     0.12894   0.51469   0.98224   0.00000  Uiso   1.00
C38    C     0.97516   0.46464   0.99542   0.00000  Uiso   1.00
C39    C     0.03618   0.53459   0.87997   0.00000  Uiso   1.00
Gd40   Gd    0.47118   0.99574   0.98881   0.00000  Uiso   1.00
Gd41   Gd    0.59253   0.06210   0.03782   0.00000  Uiso   1.00
O42    O     0.57223   0.05412   0.14211   0.00000  Uiso   1.00
O43    O     0.52094   0.02118   0.07328   0.00000  Uiso   1.00
O44    O     0.50130   0.05670   0.03939   0.00000  Uiso   1.00
O45    O     0.55306   0.08042   0.99245   0.00000  Uiso   1.00
O46    O     0.42975   0.93759   0.95039   0.00000  Uiso   1.00
O47    O     0.43593   0.96017   0.06090   0.00000  Uiso   1.00
O48    O     0.49113   0.01341   0.88751   0.00000  Uiso   1.00
C49    C     0.41810   0.93220   1.00976   0.00000  Uiso   1.00
O50    O     0.55053   0.04236   0.93531   0.00000  Uiso   1.00
O51    O     0.50535   0.96750   0.99210   0.00000  Uiso   1.00
C52    C     0.52869   0.08406   0.02000   0.00000  Uiso   1.00
O53    O     0.56874   1.00050   0.01231   0.00000  Uiso   1.00
O54    O     0.62394   0.12278   0.04800   0.00000  Uiso   1.00
O55    O     0.63268   0.09085   0.96630   0.00000  Uiso   1.00
C56    C     0.53801   0.03315   0.13766   0.00000  Uiso   1.00
C57    C     0.64212   0.12297  -0.00098   0.00000  Uiso   1.00
C58    C     0.53724   0.97019   0.99922   0.00000  Uiso   1.00
C59    C     0.52482   0.03022   0.88035   0.00000  Uiso   1.00
C60    C     0.52106   0.52432   0.35609   0.00000  Uiso   1.00
C61    C     0.50592   0.49138   0.30536   0.00000  Uiso   1.00
C62    C     0.51144   0.49357   0.23353   0.00000  Uiso   1.00
C63    C     0.53221   0.52847   0.21266   0.00000  Uiso   1.00
C64    C     0.54615   0.56057   0.26365   0.00000  Uiso   1.00
C65    C     0.54056   0.55854   0.33320   0.00000  Uiso   1.00
C66    C     0.51869   0.52515   0.43350   0.00000  Uiso   1.00
N67    N     0.53596   0.55838   0.47846   0.00000  Uiso   1.00
N68    N     0.53630   0.56029   0.54878   0.00000  Uiso   1.00
C69    C     0.51924   0.52875   0.57722   0.00000  Uiso   1.00
N70    N     0.50148   0.49556   0.53221   0.00000  Uiso   1.00
N71    N     0.50119   0.49364   0.46192   0.00000  Uiso   1.00
C72    C     0.51964   0.52940   0.65537   0.00000  Uiso   1.00
C73    C     0.50183   0.49505   0.67881   0.00000  Uiso   1.00
C74    C     0.50012   0.49270   0.75007   0.00000  Uiso   1.00
C75    C     0.51550   0.52435   0.80147   0.00000  Uiso   1.00
C76    C     0.53512   0.55954   0.78052   0.00000  Uiso   1.00
C77    C     0.53723   0.56213   0.70734   0.00000  Uiso   1.00
H78    H     0.48992   0.46422   0.32043   0.00000  Uiso   1.00
H79    H     0.49977   0.46858   0.19447   0.00000  Uiso   1.00
H80    H     0.56138   0.58805   0.24975   0.00000  Uiso   1.00
H81    H     0.55190   0.58441   0.36904   0.00000  Uiso   1.00
H82    H     0.48901   0.46919   0.64188   0.00000  Uiso   1.00
H83    H     0.48694   0.46523   0.76435   0.00000  Uiso   1.00
H84    H     0.54890   0.58454   0.82050   0.00000  Uiso   1.00
H85    H     0.55261   0.58948   0.69229   0.00000  Uiso   1.00
C86    C     0.04565   0.52892   0.65934   0.00000  Uiso   1.00
C87    C     0.02574   0.49571   0.68732   0.00000  Uiso   1.00
C88    C     0.02488   0.49679   0.76115   0.00000  Uiso   1.00
C89    C     0.04361   0.53105   0.80729   0.00000  Uiso   1.00
C90    C     0.06433   0.56360   0.77946   0.00000  Uiso   1.00
C91    C     0.06561   0.56258   0.70689   0.00000  Uiso   1.00
C92    C     0.04505   0.52982   0.58145   0.00000  Uiso   1.00
N93    N     0.06290   0.56291   0.55746   0.00000  Uiso   1.00
N94    N     0.06093   0.56468   0.48768   0.00000  Uiso   1.00
C95    C     0.04088   0.53327   0.43867   0.00000  Uiso   1.00
N96    N     0.02344   0.50010   0.46266   0.00000  Uiso   1.00
N97    N     0.02538   0.49834   0.53252   0.00000  Uiso   1.00
C98    C     0.03723   0.53486   0.36065   0.00000  Uiso   1.00
C99    C     0.01474   0.50184   0.31190   0.00000  Uiso   1.00
C100   C     0.01167   0.50213   0.23835   0.00000  Uiso   1.00
C101   C     0.03167   0.53528   0.21149   0.00000  Uiso   1.00
C102   C     0.05288   0.56877   0.25945   0.00000  Uiso   1.00
C103   C     0.05552   0.56865   0.33375   0.00000  Uiso   1.00
H104   H     0.00996   0.46917   0.65239   0.00000  Uiso   1.00
H105   H     0.00821   0.47143   0.78202   0.00000  Uiso   1.00
H106   H     0.07827   0.59029   0.81335   0.00000  Uiso   1.00
H107   H     0.08126   0.58864   0.68783   0.00000  Uiso   1.00
H108   H     0.00023   0.47544   0.33055   0.00000  Uiso   1.00
H109   H    -0.00475   0.47598   0.20225   0.00000  Uiso   1.00
H110   H     0.06869   0.59458   0.23933   0.00000  Uiso   1.00
H111   H     0.07268   0.59476   0.36977   0.00000  Uiso   1.00
C112   C     0.51778   0.02840   0.35420   0.00000  Uiso   1.00
C113   C     0.50184   0.99496   0.30539   0.00000  Uiso   1.00
C114   C     0.50438   0.99533   0.23174   0.00000  Uiso   1.00
C115   C     0.52248   0.02930   0.20537   0.00000  Uiso   1.00
C116   C     0.53642   0.06224   0.25395   0.00000  Uiso   1.00
C117   C     0.53425   0.06189   0.32673   0.00000  Uiso   1.00
C118   C     0.51925   0.02914   0.43347   0.00000  Uiso   1.00
N119   N     0.53685   0.06206   0.47911   0.00000  Uiso   1.00
N120   N     0.54028   0.06320   0.55000   0.00000  Uiso   1.00
C121   C     0.52634   0.03139   0.57869   0.00000  Uiso   1.00
N122   N     0.50832   0.99846   0.53316   0.00000  Uiso   1.00
N123   N     0.50490   0.99732   0.46223   0.00000  Uiso   1.00
C124   C     0.53040   0.03236   0.65787   0.00000  Uiso   1.00
C125   C     0.51597   0.99899   0.68605   0.00000  Uiso   1.00
C126   C     0.51755   0.99919   0.75979   0.00000  Uiso   1.00
C127   C     0.53313   0.03253   0.80732   0.00000  Uiso   1.00
C128   C     0.54986   0.06624   0.78068   0.00000  Uiso   1.00
C129   C     0.54848   0.06616   0.70627   0.00000  Uiso   1.00
H130   H     0.48875   0.96861   0.32475   0.00000  Uiso   1.00
H131   H     0.49419   0.96932   0.19680   0.00000  Uiso   1.00
H132   H     0.55135   0.08882   0.23607   0.00000  Uiso   1.00
H133   H     0.54701   0.08820   0.36210   0.00000  Uiso   1.00
H134   H     0.50264   0.97245   0.65113   0.00000  Uiso   1.00
H135   H     0.50535   0.97301   0.77987   0.00000  Uiso   1.00
H136   H     0.56249   0.09234   0.81688   0.00000  Uiso   1.00
H137   H     0.56085   0.09248   0.68676   0.00000  Uiso   1.00
C138   C     0.36834   0.52513   0.98745   0.00000  Uiso   1.00
C139   C     0.37011   0.49582   0.95095   0.00000  Uiso   1.00
C140   C     0.40330   0.49555   0.95985   0.00000  Uiso   1.00
C141   C     0.43535   0.52485   0.00468   0.00000  Uiso   1.00
C142   C     0.43371   0.55459   0.03892   0.00000  Uiso   1.00
C143   C     0.40053   0.55453   0.03130   0.00000  Uiso   1.00
C144   C     0.33321   0.52510   0.98060   0.00000  Uiso   1.00
N145   N     0.33153   0.55294   0.01781   0.00000  Uiso   1.00
N146   N     0.29979   0.55263   0.01310   0.00000  Uiso   1.00
C147   C     0.26840   0.52449   0.97091   0.00000  Uiso   1.00
N148   N     0.27005   0.49665   0.93366   0.00000  Uiso   1.00
N149   N     0.30182   0.49695   0.93838   0.00000  Uiso   1.00
C150   C     0.23304   0.52371   0.96748   0.00000  Uiso   1.00
C151   C     0.20014   0.49391   0.92598   0.00000  Uiso   1.00
C152   C     0.16627   0.49186   0.92747   0.00000  Uiso   1.00
C153   C     0.16477   0.51955   0.97035   0.00000  Uiso   1.00
C154   C     0.19781   0.54975   0.01057   0.00000  Uiso   1.00
C155   C     0.23157   0.55189   0.00893   0.00000  Uiso   1.00
H156   H     0.34588   0.47320   0.91544   0.00000  Uiso   1.00
H157   H     0.40404   0.47303   0.92993   0.00000  Uiso   1.00
H158   H     0.45815   0.57784   0.07219   0.00000  Uiso   1.00
H159   H     0.40020   0.57762   0.05991   0.00000  Uiso   1.00
H160   H     0.20030   0.47145   0.89447   0.00000  Uiso   1.00
H161   H     0.14108   0.46763   0.89848   0.00000  Uiso   1.00
H162   H     0.19745   0.57098   0.04601   0.00000  Uiso   1.00
H163   H     0.25627   0.57494   0.04238   0.00000  Uiso   1.00
C164   C     0.87286   0.36301   0.00316   0.00000  Uiso   1.00
C165   C     0.87278   0.39593   0.99603   0.00000  Uiso   1.00
C166   C     0.90566   0.42871   0.99219   0.00000  Uiso   1.00
C167   C     0.93945   0.42938   0.99502   0.00000  Uiso   1.00
C168   C     0.93914   0.39619   0.00135   0.00000  Uiso   1.00
C169   C     0.90642   0.36356   0.00542   0.00000  Uiso   1.00
C170   C     0.83823   0.32790   0.00622   0.00000  Uiso   1.00
N171   N     0.83885   0.29625   0.01141   0.00000  Uiso   1.00
N172   N     0.80781   0.26426   0.01112   0.00000  Uiso   1.00
C173   C     0.77471   0.26249   0.00569   0.00000  Uiso   1.00
N174   N     0.77405   0.29421   0.00159   0.00000  Uiso   1.00
N175   N     0.80516   0.32626   0.00186   0.00000  Uiso   1.00
C176   C     0.74008   0.22642   0.00092   0.00000  Uiso   1.00
C177   C     0.70564   0.22430   0.99512   0.00000  Uiso   1.00
C178   C     0.67307   0.19011   0.99038   0.00000  Uiso   1.00
C179   C     0.67439   0.15750   0.98930   0.00000  Uiso   1.00
C180   C     0.70852   0.15942  -0.00524   0.00000  Uiso   1.00
C181   C     0.74114   0.19357   0.00128   0.00000  Uiso   1.00
H182   H     0.84728   0.39636   0.99306   0.00000  Uiso   1.00
H183   H     0.90449   0.45349   0.98698   0.00000  Uiso   1.00
H184   H     0.96427   0.39526   0.00349   0.00000  Uiso   1.00
H185   H     0.90740   0.33860   0.00999   0.00000  Uiso   1.00
H186   H     0.70391   0.24909   0.99579   0.00000  Uiso   1.00
H187   H     0.64700   0.18920   0.98960   0.00000  Uiso   1.00
H188   H     0.71007   0.13475  -0.00079   0.00000  Uiso   1.00
H189   H     0.76712   0.19411   0.00821   0.00000  Uiso   1.00
C190   C     0.82947   0.53082   0.02880   0.00000  Uiso   1.00
C191   C     0.85570   0.54261   0.09229   0.00000  Uiso   1.00
C192   C     0.89052   0.54669   0.08997   0.00000  Uiso   1.00
C193   C     0.89928   0.53894   0.02417   0.00000  Uiso   1.00
C194   C     0.87241   0.52582   0.96164   0.00000  Uiso   1.00
C195   C     0.83802   0.52175   0.96387   0.00000  Uiso   1.00
C196   C     0.79397   0.52956   0.02813   0.00000  Uiso   1.00
N197   N     0.77046   0.52012   0.96512   0.00000  Uiso   1.00
N198   N     0.73885   0.51982   0.96286   0.00000  Uiso   1.00
C199   C     0.72931   0.52903   0.02352   0.00000  Uiso   1.00
N200   N     0.75282   0.53856   0.08681   0.00000  Uiso   1.00
N201   N     0.78458   0.53888   0.08906   0.00000  Uiso   1.00
C202   C     0.69409   0.52877   0.01970   0.00000  Uiso   1.00
C203   C     0.68358   0.53841   0.08169   0.00000  Uiso   1.00
C204   C     0.65029   0.53827   0.07670   0.00000  Uiso   1.00
C205   C     0.62709   0.52855   0.00988   0.00000  Uiso   1.00
C206   C     0.63724   0.51844   0.94835   0.00000  Uiso   1.00
C207   C     0.67058   0.51888   0.95302   0.00000  Uiso   1.00
H208   H     0.84964   0.54947   0.14320   0.00000  Uiso   1.00
H209   H     0.91070   0.55668   0.13905   0.00000  Uiso   1.00
H210   H     0.87833   0.51972   0.91009   0.00000  Uiso   1.00
H211   H     0.81864   0.51249   0.91384   0.00000  Uiso   1.00
H212   H     0.70123   0.54643   0.13373   0.00000  Uiso   1.00
H213   H     0.64266   0.54576   0.12503   0.00000  Uiso   1.00
H214   H     0.61968   0.51082   0.89656   0.00000  Uiso   1.00
H215   H     0.67811   0.51191   0.90405   0.00000  Uiso   1.00
C216   C     0.31790   0.83187   0.02086   0.00000  Uiso   1.00
C217   C     0.32692   0.84270   0.95452   0.00000  Uiso   1.00
C218   C     0.36015   0.87468   0.95170   0.00000  Uiso   1.00
C219   C     0.38485   0.89700   0.01498   0.00000  Uiso   1.00
C220   C     0.37634   0.88625   0.08127   0.00000  Uiso   1.00
C221   C     0.34317   0.85376   0.08423   0.00000  Uiso   1.00
C222   C     0.28258   0.79765   0.02348   0.00000  Uiso   1.00
N223   N     0.27403   0.78586   0.08678   0.00000  Uiso   1.00
N224   N     0.24286   0.75422   0.08861   0.00000  Uiso   1.00
C225   C     0.21889   0.73304   0.02716   0.00000  Uiso   1.00
N226   N     0.22727   0.74519   0.96401   0.00000  Uiso   1.00
N227   N     0.25838   0.77677   0.96220   0.00000  Uiso   1.00
C228   C     0.18486   0.69685   0.02817   0.00000  Uiso   1.00
C229   C     0.16175   0.67458   0.96339   0.00000  Uiso   1.00
C230   C     0.13062   0.63976   0.96327   0.00000  Uiso   1.00
C231   C     0.12089   0.62670   0.02762   0.00000  Uiso   1.00
C232   C     0.14396   0.64871   0.09246   0.00000  Uiso   1.00
C233   C     0.17573   0.68340   0.09288   0.00000  Uiso   1.00
H234   H     0.30834   0.82687   0.90441   0.00000  Uiso   1.00
H235   H     0.36601   0.88266   0.89985   0.00000  Uiso   1.00
H236   H     0.39525   0.90294   0.13054   0.00000  Uiso   1.00
H237   H     0.33720   0.84595   0.13608   0.00000  Uiso   1.00
H238   H     0.16803   0.68379   0.91246   0.00000  Uiso   1.00
H239   H     0.11432   0.62307   0.91268   0.00000  Uiso   1.00
H240   H     0.13807   0.63840   0.14248   0.00000  Uiso   1.00
H241   H     0.19337   0.69938   0.14375   0.00000  Uiso   1.00
C242   C     0.54657   0.87308   0.99200   0.00000  Uiso   1.00
C243   C     0.55022   0.89347   0.05780   0.00000  Uiso   1.00
C244   C     0.54608   0.92438   0.05948   0.00000  Uiso   1.00
C245   C     0.53825   0.93561  -0.00434   0.00000  Uiso   1.00
C246   C     0.53443   0.91535   0.92977   0.00000  Uiso   1.00
C247   C     0.53880   0.88446   0.92789   0.00000  Uiso   1.00
C248   C     0.54919   0.83923   0.99061   0.00000  Uiso   1.00
N249   N     0.54411   0.81832   0.92751   0.00000  Uiso   1.00
N250   N     0.54441   0.78682   0.92646   0.00000  Uiso   1.00
C251   C     0.54970   0.77487   0.98842   0.00000  Uiso   1.00
N252   N     0.55535   0.79605   0.05154   0.00000  Uiso   1.00
N253   N     0.55507   0.82754   0.05259   0.00000  Uiso   1.00
C254   C     0.54844   0.73916   0.98734   0.00000  Uiso   1.00
C255   C     0.55236   0.72658   0.05203   0.00000  Uiso   1.00
C256   C     0.55129   0.69312   0.05155   0.00000  Uiso   1.00
C257   C     0.54719   0.67180   0.98687   0.00000  Uiso   1.00
C258   C     0.54275   0.68375   0.92182   0.00000  Uiso   1.00
C259   C     0.54291   0.71710   0.92207   0.00000  Uiso   1.00
H260   H     0.55616   0.88548   0.10816   0.00000  Uiso   1.00
H261   H     0.54899   0.93955   0.11083   0.00000  Uiso   1.00
H262   H     0.52851   0.92364   0.87995   0.00000  Uiso   1.00
H263   H     0.53601   0.86949   0.87627   0.00000  Uiso   1.00
H264   H     0.55653   0.74249   0.10341   0.00000  Uiso   1.00
H265   H     0.55489   0.68431   0.10229   0.00000  Uiso   1.00
H266   H     0.53865   0.66721   0.87123   0.00000  Uiso   1.00
H267   H     0.53886   0.72574   0.87138   0.00000  Uiso   1.00
C268   C     0.52925   0.32157   0.02089   0.00000  Uiso   1.00
C269   C     0.53258   0.34305   0.08518   0.00000  Uiso   1.00
C270   C     0.52780   0.37363   0.08354   0.00000  Uiso   1.00
C271   C     0.52015   0.38324   0.01748   0.00000  Uiso   1.00
C272   C     0.51805   0.36244   0.95376   0.00000  Uiso   1.00
C273   C     0.52235   0.33196   0.95529   0.00000  Uiso   1.00
C274   C     0.53143   0.28766   0.02140   0.00000  Uiso   1.00
N275   N     0.52631   0.26627   0.95892   0.00000  Uiso   1.00
N276   N     0.52680   0.23493   0.95903   0.00000  Uiso   1.00
C277   C     0.53240   0.22356   0.02163   0.00000  Uiso   1.00
N278   N     0.53773   0.24509   0.08411   0.00000  Uiso   1.00
N279   N     0.53723   0.27646   0.08400   0.00000  Uiso   1.00
C280   C     0.53196   0.18809   0.02157   0.00000  Uiso   1.00
C281   C     0.53695   0.17582   0.08636   0.00000  Uiso   1.00
C282   C     0.53571   0.14193   0.08596   0.00000  Uiso   1.00
C283   C     0.52983   0.11984   0.02098   0.00000  Uiso   1.00
C284   C     0.52577   0.13250   0.95633   0.00000  Uiso   1.00
C285   C     0.52632   0.16599   0.95651   0.00000  Uiso   1.00
H286   H     0.53839   0.33590   0.13656   0.00000  Uiso   1.00
H287   H     0.53015   0.38960   0.13350   0.00000  Uiso   1.00
H288   H     0.51206   0.36921   0.90210   0.00000  Uiso   1.00
H289   H     0.51957   0.31634   0.90458   0.00000  Uiso   1.00
H290   H     0.54178   0.19240   0.13742   0.00000  Uiso   1.00
H291   H     0.54013   0.13337   0.13642   0.00000  Uiso   1.00
H292   H     0.52178   0.11631   0.90547   0.00000  Uiso   1.00
H293   H     0.52224   0.17455   0.90563   0.00000  Uiso   1.00
loop_
_geom_bond_atom_site_label_1
_geom_bond_atom_site_label_2
_geom_bond_distance
_geom_bond_site_symmetry_2
_ccdc_geom_bond_type
Gd0    O6      2.182   .     S
Gd0    O8      2.179   .     S
Gd0    O11     2.286   .     S
Gd0    O3      2.194   1_556 S
Gd0    O4      2.265   1_556 S
Gd0    O7      2.236   1_556 S
Gd1    O2      2.185   .     S
Gd1    O13     2.215   .     S
Gd1    O14     2.190   .     S
Gd1    O5      2.258   1_554 S
Gd1    O10     2.204   1_554 S
Gd1    O15     2.255   1_554 S
O2     C16     1.249   .     A
O3     C16     1.263   .     A
O3     Gd0     2.194   1_554 S
O4     C12     1.285   .     A
O4     Gd0     2.265   1_554 S
O5     Gd1     2.258   1_556 S
O5     C12     1.282   1_556 A
O6     C9      1.271   .     A
O7     Gd0     2.236   1_554 S
O7     C9      1.285   1_554 A
O8     C19     1.259   .     A
C9     O7      1.285   1_556 A
C9     C271    1.472   1_556 S
O10    C19     1.261   .     A
O10    Gd1     2.204   1_556 S
O11    C18     1.287   1_556 A
C12    C141    1.480   .     S
C12    O5      1.282   1_554 A
O13    C18     1.276   .     A
O14    C17     1.267   .     A
O15    Gd1     2.255   1_556 S
O15    C17     1.280   1_556 A
C16    C63     1.483   .     S
C17    O15     1.280   1_554 A
C17    C257    1.468   1_554 S
C18    C205    1.471   .     S
C18    O11     1.287   1_554 A
C19    C75     1.470   .     S
Gd20   O28     2.236   .     S
Gd20   O23     2.221   1_556 S
Gd20   O24     2.280   1_556 S
Gd20   O26     2.180   1_455 S
Gd20   O27     2.235   1_456 S
Gd20   O31     2.270   1_455 S
Gd21   O22     2.212   .     S
Gd21   O34     2.188   .     S
Gd21   O25     2.283   1_554 S
Gd21   O30     2.230   1_554 S
Gd21   O33     2.258   1_554 S
Gd21   O35     2.237   1_554 S
O22    C36     1.258   .     A
O23    C36     1.267   .     A
O23    Gd20    2.221   1_554 S
O24    C32     1.279   .     A
O24    Gd20    2.280   1_554 S
O25    Gd21    2.283   1_556 S
O25    C32     1.279   1_556 A
O26    Gd20    2.180   1_655 S
O26    C29     1.275   1_556 A
O27    C29     1.286   .     A
O27    Gd20    2.235   1_654 S
O28    C39     1.264   .     A
C29    C193    1.474   .     S
C29    O26     1.275   1_554 A
O30    C39     1.269   .     A
O30    Gd21    2.230   1_556 S
O31    C38     1.284   .     A
O31    Gd20    2.270   1_655 S
C32    C231    1.486   .     S
C32    O25     1.279   1_554 A
O33    Gd21    2.258   1_556 S
O33    C38     1.285   1_455 A
O34    C37     1.269   1_554 A
O35    C37     1.283   .     A
O35    Gd21    2.237   1_556 S
C36    C101    1.464   .     S
C37    C153    1.473   .     S
C37    O34     1.269   1_556 A
C38    C167    1.498   .     S
C38    O33     1.285   1_655 A
C39    C89     1.465   .     S
Gd40   O46     2.175   .     S
Gd40   O51     2.285   .     S
Gd40   O43     2.203   1_566 S
Gd40   O44     2.278   1_566 S
Gd40   O47     2.218   1_556 S
Gd40   O48     2.227   1_565 S
Gd41   O42     2.236   .     S
Gd41   O54     2.191   .     S
Gd41   O45     2.280   1_554 S
Gd41   O50     2.262   1_554 S
Gd41   O53     2.248   1_545 S
Gd41   O55     2.224   1_554 S
O42    C56     1.252   .     A
O43    C56     1.268   .     A
O43    Gd40    2.203   1_544 S
O44    C52     1.281   .     A
O44    Gd40    2.278   1_544 S
O45    Gd41    2.280   1_556 S
O45    C52     1.277   1_556 A
O46    C49     1.276   .     A
O47    Gd40    2.218   1_554 S
O47    C49     1.289   1_554 A
O48    C59     1.267   .     A
O48    Gd40    2.227   1_545 S
C49    O47     1.289   1_556 A
C49    C219    1.469   1_556 S
O50    C59     1.279   .     A
O50    Gd41    2.262   1_556 S
O51    C58     1.287   .     A
C52    C283    1.482   .     S
C52    O45     1.277   1_554 A
O53    Gd41    2.248   1_565 S
O53    C58     1.281   1_554 A
O54    C57     1.273   .     A
O55    Gd41    2.224   1_556 S
O55    C57     1.282   1_556 A
C56    C115    1.496   .     S
C57    O55     1.282   1_554 A
C57    C179    1.460   1_554 S
C58    O53     1.281   1_556 A
C58    C245    1.475   1_556 S
C59    C127    1.471   .     S
C60    C61     1.421   .     A
C60    C65     1.394   .     A
C60    C66     1.486   .     S
C61    C62     1.415   .     A
C61    H78     1.083   .     S
C62    C63     1.405   .     A
C62    H79     1.083   .     S
C63    C64     1.406   .     A
C64    C65     1.373   .     A
C64    H80     1.081   .     S
C65    H81     1.079   .     S
C66    N67     1.366   .     A
C66    N71     1.352   .     A
N67    N68     1.332   .     A
N68    C69     1.351   .     A
C69    N70     1.364   .     A
C69    C72     1.483   .     S
N70    N71     1.331   .     A
C72    C73     1.397   .     A
C72    C77     1.420   .     A
C73    C74     1.375   .     A
C73    H82     1.083   .     S
C74    C75     1.390   .     A
C74    H83     1.079   .     S
C75    C76     1.409   .     A
C76    C77     1.415   .     A
C76    H84     1.088   .     S
C77    H85     1.086   .     S
C86    C87     1.413   .     A
C86    C91     1.401   .     A
C86    C92     1.483   .     S
C87    C88     1.407   .     A
C87    H104    1.081   .     S
C88    C89     1.405   .     A
C88    H105    1.085   .     S
C89    C90     1.397   .     A
C90    C91     1.386   .     A
C90    H106    1.077   .     S
C91    H107    1.081   .     S
C92    N93     1.361   .     A
C92    N97     1.355   .     A
N93    N94     1.331   .     A
N94    C95     1.355   .     A
C95    N96     1.362   .     A
C95    C98     1.485   .     S
N96    N97     1.333   .     A
C98    C99     1.402   .     A
C98    C103    1.412   .     A
C99    C100    1.392   .     A
C99    H108    1.082   .     S
C100   C101    1.400   .     A
C100   H109    1.082   .     S
C101   C102    1.402   .     A
C102   C103    1.406   .     A
C102   H110    1.084   .     S
C103   H111    1.083   .     S
C112   C117    1.403   .     A
C112   C118    1.499   .     S
C112   C113    1.413   1_545 A
C113   C114    1.418   .     A
C113   H130    1.083   .     S
C113   C112    1.413   1_565 A
C114   H131    1.083   .     S
C114   C115    1.412   1_565 A
C115   C116    1.406   .     A
C115   C114    1.412   1_545 A
C116   C117    1.399   .     A
C116   H132    1.083   .     S
C117   H133    1.082   .     S
C118   N119    1.362   .     A
C118   N123    1.359   1_545 A
N119   N120    1.334   .     A
N120   C121    1.357   .     A
C121   C124    1.491   .     S
C121   N122    1.361   1_545 A
N122   N123    1.335   .     A
N122   C121    1.361   1_565 A
N123   C118    1.359   1_565 A
C124   C129    1.413   .     A
C124   C125    1.405   1_545 A
C125   C126    1.396   .     A
C125   H134    1.083   .     S
C125   C124    1.405   1_565 A
C126   H135    1.083   .     S
C126   C127    1.399   1_565 A
C127   C128    1.403   .     A
C127   C126    1.399   1_545 A
C128   C129    1.410   .     A
C128   H136    1.084   .     S
C129   H137    1.082   .     S
C138   C139    1.406   .     A
C138   C144    1.477   .     S
C138   C143    1.404   1_556 A
C139   C140    1.401   .     A
C139   H156    1.085   .     S
C140   H157    1.082   .     S
C140   C141    1.407   1_556 A
C141   C142    1.402   .     A
C141   C140    1.407   1_554 A
C142   C143    1.394   .     A
C142   H158    1.080   .     S
C143   H159    1.083   .     S
C143   C138    1.404   1_554 A
C144   N149    1.357   .     A
C144   N145    1.357   1_556 A
N145   N146    1.330   .     A
N145   C144    1.357   1_554 A
N146   C147    1.357   1_554 A
C147   N148    1.357   .     A
C147   C150    1.474   .     S
C147   N146    1.357   1_556 A
N148   N149    1.331   .     A
C150   C151    1.406   .     A
C150   C155    1.403   1_556 A
C151   C152    1.396   .     A
C151   H160    1.082   .     S
C152   C153    1.401   .     A
C152   H161    1.081   .     S
C153   C154    1.406   1_556 A
C154   C155    1.391   .     A
C154   H162    1.083   .     S
C154   C153    1.406   1_554 A
C155   H163    1.083   .     S
C155   C150    1.403   1_554 A
C164   C169    1.404   .     A
C164   C170    1.485   .     S
C164   C165    1.406   1_554 A
C165   C166    1.403   .     A
C165   H182    1.083   .     S
C165   C164    1.406   1_556 A
C166   C167    1.411   .     A
C166   H183    1.081   .     S
C167   C168    1.407   1_556 A
C168   C169    1.397   .     A
C168   H184    1.080   .     S
C168   C167    1.407   1_554 A
C169   H185    1.083   .     S
C170   N171    1.358   .     A
C170   N175    1.359   .     A
N171   N172    1.330   .     A
N172   C173    1.356   .     A
C173   N174    1.359   .     A
C173   C176    1.478   .     S
N174   N175    1.333   .     A
C176   C181    1.407   .     A
C176   C177    1.406   1_554 A
C177   C178    1.396   .     A
C177   H186    1.082   .     S
C177   C176    1.406   1_556 A
C178   C179    1.401   .     A
C178   H187    1.083   .     S
C179   C180    1.397   1_556 A
C179   C57     1.460   1_556 S
C180   C181    1.392   .     A
C180   H188    1.083   .     S
C180   C179    1.397   1_554 A
C181   H189    1.081   .     S
C190   C191    1.408   .     A
C190   C196    1.475   .     S
C190   C195    1.403   1_554 A
C191   C192    1.402   .     A
C191   H208    1.083   .     S
C192   C193    1.405   .     A
C192   H209    1.083   .     S
C193   C194    1.403   1_554 A
C194   C195    1.384   .     A
C194   H210    1.082   .     S
C194   C193    1.403   1_556 A
C195   H211    1.082   .     S
C195   C190    1.403   1_556 A
C196   N201    1.358   .     A
C196   N197    1.356   1_554 A
N197   N198    1.328   .     A
N197   C196    1.356   1_556 A
N198   C199    1.355   1_556 A
C199   N200    1.360   .     A
C199   C202    1.479   .     S
C199   N198    1.355   1_554 A
N200   N201    1.334   .     A
C202   C203    1.406   .     A
C202   C207    1.408   1_554 A
C203   C204    1.399   .     A
C203   H212    1.085   .     S
C204   C205    1.405   .     A
C204   H213    1.083   .     S
C205   C206    1.398   1_554 A
C206   C207    1.395   .     A
C206   H214    1.081   .     S
C206   C205    1.398   1_556 A
C207   H215    1.083   .     S
C207   C202    1.408   1_556 A
C216   C221    1.409   .     A
C216   C222    1.480   .     S
C216   C217    1.406   1_554 A
C217   C218    1.390   .     A
C217   H234    1.083   .     S
C217   C216    1.406   1_556 A
C218   H235    1.084   .     S
C218   C219    1.404   1_556 A
C219   C220    1.400   .     A
C219   C218    1.404   1_554 A
C219   C49     1.469   1_554 S
C220   C221    1.399   .     A
C220   H236    1.083   .     S
C221   H237    1.083   .     S
C222   N223    1.358   .     A
C222   N227    1.357   1_554 A
N223   N224    1.334   .     A
N224   C225    1.359   .     A
C225   C228    1.488   .     S
C225   N226    1.359   1_554 A
N226   N227    1.331   .     A
N226   C225    1.359   1_556 A
N227   C222    1.357   1_556 A
C228   C233    1.410   .     A
C228   C229    1.405   1_554 A
C229   C230    1.398   .     A
C229   H238    1.085   .     S
C229   C228    1.405   1_556 A
C230   H239    1.072   .     S
C230   C231    1.403   1_556 A
C231   C232    1.403   .     A
C231   C230    1.403   1_554 A
C232   C233    1.405   .     A
C232   H240    1.081   .     S
C233   H241    1.083   .     S
C242   C247    1.409   .     A
C242   C248    1.483   .     S
C242   C243    1.406   1_556 A
C243   C244    1.396   .     A
C243   H260    1.084   .     S
C243   C242    1.406   1_554 A
C244   C245    1.402   .     A
C244   H261    1.082   .     S
C245   C246    1.403   1_554 A
C245   C58     1.475   1_554 S
C246   C247    1.401   .     A
C246   H262    1.082   .     S
C246   C245    1.403   1_556 A
C247   H263    1.084   .     S
C248   N249    1.358   .     A
C248   N253    1.358   1_556 A
N249   N250    1.332   .     A
N250   C251    1.357   .     A
C251   C254    1.477   .     S
C251   N252    1.358   1_556 A
N252   N253    1.331   .     A
N252   C251    1.358   1_554 A
N253   C248    1.358   1_554 A
C254   C259    1.410   .     A
C254   C255    1.403   1_556 A
C255   C256    1.387   .     A
C255   H264    1.083   .     S
C255   C254    1.403   1_554 A
C256   H265    1.083   .     S
C256   C257    1.402   1_554 A
C257   C258    1.401   .     A
C257   C256    1.402   1_556 A
C257   C17     1.468   1_556 S
C258   C259    1.401   .     A
C258   H266    1.083   .     S
C259   H267    1.083   .     S
C268   C269    1.410   .     A
C268   C274    1.478   .     S
C268   C273    1.402   1_554 A
C269   C270    1.402   .     A
C269   H286    1.083   .     S
C270   C271    1.403   .     A
C270   H287    1.084   .     S
C271   C272    1.404   1_554 A
C271   C9      1.472   1_554 S
C272   C273    1.386   .     A
C272   H288    1.083   .     S
C272   C271    1.404   1_556 A
C273   H289    1.082   .     S
C273   C268    1.402   1_556 A
C274   N279    1.357   .     A
C274   N275    1.358   1_554 A
N275   N276    1.331   .     A
N275   C274    1.358   1_556 A
N276   C277    1.358   1_556 A
C277   N278    1.359   .     A
C277   C280    1.485   .     S
C277   N276    1.358   1_554 A
N278   N279    1.332   .     A
C280   C281    1.408   .     A
C280   C285    1.407   1_554 A
C281   C282    1.402   .     A
C281   H290    1.084   .     S
C282   C283    1.403   .     A
C282   H291    1.081   .     S
C283   C284    1.406   1_554 A
C284   C285    1.399   .     A
C284   H292    1.082   .     S
C284   C283    1.406   1_556 A
C285   H293    1.085   .     S
C285   C280    1.407   1_556 A
