data_kag+N155+E8
_audit_creation_date              2025-01-21
_audit_creation_method            'Materials Studio'
_symmetry_space_group_name_H-M    'P1'
_symmetry_Int_Tables_number       1
_symmetry_cell_setting            triclinic
loop_
_symmetry_equiv_pos_as_xyz
  x,y,z
_cell_length_a                    28.3251
_cell_length_b                    30.0792
_cell_length_c                    12.8395
_cell_angle_alpha                 111.2079
_cell_angle_beta                  77.1002
_cell_angle_gamma                 125.7134
loop_
_atom_site_label
_atom_site_type_symbol
_atom_site_fract_x
_atom_site_fract_y
_atom_site_fract_z
_atom_site_U_iso_or_equiv
_atom_site_adp_type
_atom_site_occupancy
C0     C     0.45238   0.33780  -0.08949   0.00000  Uiso   1.00
Ho1    Ho    0.48472   0.44340  -0.03238   0.00000  Uiso   1.00
C2     C     0.53300   0.64703   1.01884   0.00000  Uiso   1.00
Ho3    Ho    0.54436   0.57109   1.04262   0.00000  Uiso   1.00
O4     O     0.44770   0.36491   0.01119   0.00000  Uiso   1.00
O5     O     0.46711   0.36478   0.83977   0.00000  Uiso   1.00
O6     O     0.48173   0.42852   0.12686   0.00000  Uiso   1.00
O7     O     0.49236   0.50512   0.12728   0.00000  Uiso   1.00
C8     C     0.49565   0.47649   0.18630   0.00000  Uiso   1.00
C9     C     0.54846   0.54476   0.81777   0.00000  Uiso   1.00
O10    O     0.57466   0.46995  -0.02786   0.00000  Uiso   1.00
O11    O     0.61939   0.56674   1.04033   0.00000  Uiso   1.00
O12    O     0.57924   0.64652   0.99403   0.00000  Uiso   1.00
O13    O     0.48991   0.60262   0.04677   0.00000  Uiso   1.00
O14    O     0.57512   0.59283   0.87978   0.00000  Uiso   1.00
O15    O     0.52396   0.50595   0.87679   0.00000  Uiso   1.00
O16    O     0.45153   0.53768   1.02163   0.00000  Uiso   1.00
O17    O     0.40371   0.43910  -0.02355   0.00000  Uiso   1.00
C18    C     0.40430   0.48549   1.00094   0.00000  Uiso   1.00
C19    C     0.61997   0.52115   0.00570   0.00000  Uiso   1.00
C20    C     0.10376   0.43782  -0.02293   0.00000  Uiso   1.00
Ho21   Ho    0.04028   0.47750   0.00241   0.00000  Uiso   1.00
C22    C     0.91701   0.57509   1.07176   0.00000  Uiso   1.00
Ho23   Ho    0.98003   0.53583   1.04981   0.00000  Uiso   1.00
O24    O     0.08658   0.45751   0.07247   0.00000  Uiso   1.00
O25    O     0.08187   0.43365   0.89404   0.00000  Uiso   1.00
O26    O     0.06161   0.48498   0.16496   0.00000  Uiso   1.00
O27    O     1.01503   0.51979   0.15276   0.00000  Uiso   1.00
C28    C     0.03753   0.50954   0.21985   0.00000  Uiso   1.00
C29    C    -0.01690   0.50382   0.83218   0.00000  Uiso   1.00
O30    O     0.11596   0.56474   0.00629   0.00000  Uiso   1.00
O31    O     0.06861   0.61044   1.04065   0.00000  Uiso   1.00
O32    O     0.93524   0.55594   0.97743   0.00000  Uiso   1.00
O33    O     0.93795   0.57938   0.15630   0.00000  Uiso   1.00
O34    O     0.95933   0.52866   0.88711   0.00000  Uiso   1.00
O35    O     0.00564   0.49344   0.89917   0.00000  Uiso   1.00
O36    O     0.90451   0.45024   1.04621   0.00000  Uiso   1.00
O37    O     0.94973   0.40262   0.01270   0.00000  Uiso   1.00
C38    C     0.90355   0.40484   1.03296   0.00000  Uiso   1.00
C39    C     0.11528   0.60957   0.02026   0.00000  Uiso   1.00
C40    C     0.50014   0.88010   0.97691   0.00000  Uiso   1.00
Ho41   Ho    0.52283   0.97426   0.95749   0.00000  Uiso   1.00
C42    C     0.44603   0.08695  -0.04377   0.00000  Uiso   1.00
Ho43   Ho    0.47519   0.04348   0.06015   0.00000  Uiso   1.00
O44    O     0.54992   0.92708   0.99310   0.00000  Uiso   1.00
O45    O     0.46092   0.88346  -0.04744   0.00000  Uiso   1.00
O46    O     0.52620   0.95260   0.77884   0.00000  Uiso   1.00
O47    O     0.49415   0.00846   0.88421   0.00000  Uiso   1.00
C48    C     0.50893  -0.01827   0.77788   0.00000  Uiso   1.00
C49    C     0.47697   1.01342   0.22620   0.00000  Uiso   1.00
O50    O     0.42879   0.90583   0.95952   0.00000  Uiso   1.00
O51    O     0.39109   0.96032   0.02700   0.00000  Uiso   1.00
O52    O     0.43537   0.08740   0.05600   0.00000  Uiso   1.00
O53    O     0.47165   0.06176   0.90791   0.00000  Uiso   1.00
O54    O     0.45654   0.04046   0.23316   0.00000  Uiso   1.00
O55    O     0.51043   1.01190   0.12985   0.00000  Uiso   1.00
O56    O     0.56808   0.11484   0.07125   0.00000  Uiso   1.00
O57    O     0.60385   0.05925   0.97629   0.00000  Uiso   1.00
C58    C     0.61068   0.10855   0.02655   0.00000  Uiso   1.00
C59    C     0.38529   0.91150   0.99145   0.00000  Uiso   1.00
C60    C     0.53848   0.49975   0.46575   0.00000  Uiso   1.00
C61    C     0.51245   0.52793   0.53804   0.00000  Uiso   1.00
N62    N     0.48249   0.53956   0.49452   0.00000  Uiso   1.00
C63    C     0.47754   0.52452   0.38196   0.00000  Uiso   1.00
C64    C     0.50325   0.49596   0.30885   0.00000  Uiso   1.00
N65    N     0.53310   0.48416   0.35308   0.00000  Uiso   1.00
N66    N     0.56843   0.48810   0.50946   0.00000  Uiso   1.00
C67    C     0.57290   0.50268   0.62221   0.00000  Uiso   1.00
C68    C     0.54613   0.53018   0.69511   0.00000  Uiso   1.00
N69    N     0.51680   0.54241   0.65069   0.00000  Uiso   1.00
H70    H     0.45233   0.53303   0.34949   0.00000  Uiso   1.00
H71    H     0.59730   0.49311   0.65460   0.00000  Uiso   1.00
C72    C     0.99140   0.51523   0.55401   0.00000  Uiso   1.00
C73    C     0.02879   0.49750   0.49775   0.00000  Uiso   1.00
N74    N     0.04739   0.47836   0.54963   0.00000  Uiso   1.00
C75    C     0.03073   0.47685   0.65648   0.00000  Uiso   1.00
C76    C    -0.00610   0.49533   0.71318   0.00000  Uiso   1.00
N77    N     0.97489   0.51378   0.66024   0.00000  Uiso   1.00
N78    N     0.97336   0.53497   0.50259   0.00000  Uiso   1.00
C79    C     0.99039   0.53694   0.39608   0.00000  Uiso   1.00
C80    C     1.02665   0.51787   0.33890   0.00000  Uiso   1.00
N81    N     0.04523   0.49890   0.39140   0.00000  Uiso   1.00
H82    H     0.04766   0.46339   0.69785   0.00000  Uiso   1.00
H83    H     0.97414   0.55119   0.35527   0.00000  Uiso   1.00
C84    C     0.51982   0.01433   0.47817   0.00000  Uiso   1.00
C85    C     0.46691   0.97078   0.51184   0.00000  Uiso   1.00
N86    N     0.41914   0.94018   0.44803   0.00000  Uiso   1.00
C87    C     0.42182   0.95151   0.35263   0.00000  Uiso   1.00
C88    C     0.47459   0.99515   0.31950   0.00000  Uiso   1.00
N89    N     0.52245   0.02547   0.38303   0.00000  Uiso   1.00
N90    N     0.56730   0.04609   0.54314   0.00000  Uiso   1.00
C91    C     0.56395   0.03674   0.64139   0.00000  Uiso   1.00
C92    C     0.51123  -0.00650   0.67537   0.00000  Uiso   1.00
N93    N     0.46376   0.96121   0.60968   0.00000  Uiso   1.00
H94    H     0.38293   0.92760   0.30431   0.00000  Uiso   1.00
H95    H     0.60264   0.06209   0.69138   0.00000  Uiso   1.00
C96    C     0.25117   0.43180   0.95542   0.00000  Uiso   1.00
C97    C     0.24854   0.47843   0.02699   0.00000  Uiso   1.00
N98    N     0.29528   0.52492   0.08807   0.00000  Uiso   1.00
C99    C     0.34511   0.52745   0.08109   0.00000  Uiso   1.00
C100   C     0.34868   0.48105   0.00999   0.00000  Uiso   1.00
N101   N     0.30106   0.43370   0.94921   0.00000  Uiso   1.00
N102   N     0.20409   0.38624   0.89155   0.00000  Uiso   1.00
C103   C     0.15508   0.38566   0.89554   0.00000  Uiso   1.00
C104   C     0.15276   0.43236  -0.03140   0.00000  Uiso   1.00
N105   N     0.19971   0.47728   0.03232   0.00000  Uiso   1.00
H106   H     0.38154   0.56553   0.13145   0.00000  Uiso   1.00
H107   H     0.11832   0.34912   0.84382   0.00000  Uiso   1.00
C108   C     0.78203   0.25409   1.02043   0.00000  Uiso   1.00
C109   C     0.73473   0.25977   0.05839   0.00000  Uiso   1.00
N110   N     0.74368   0.31213   0.08914   0.00000  Uiso   1.00
C111   C     0.79753   0.35904   0.08284   0.00000  Uiso   1.00
C112   C     0.84526   0.35374   0.04331   0.00000  Uiso   1.00
N113   N     0.83622   0.30107   1.01372   0.00000  Uiso   1.00
N114   N     0.77276   0.20145   0.98905   0.00000  Uiso   1.00
C115   C     0.71846   0.15437   0.99307   0.00000  Uiso   1.00
C116   C     0.67072   0.15980   1.02978   0.00000  Uiso   1.00
N117   N     0.68039   0.21279   0.06233   0.00000  Uiso   1.00
H118   H     0.80274   0.40014   0.10814   0.00000  Uiso   1.00
H119   H     0.71257   0.11290   0.96613   0.00000  Uiso   1.00
C120   C     0.77763   0.53562   0.99591   0.00000  Uiso   1.00
C121   C     0.76756   0.57472   0.07984   0.00000  Uiso   1.00
N122   N     0.80788   0.61523   0.16102   0.00000  Uiso   1.00
C123   C     0.85773   0.61811   0.16177   0.00000  Uiso   1.00
C124   C     0.86790   0.57947   1.07600   0.00000  Uiso   1.00
N125   N     0.82743   0.53939   0.99555   0.00000  Uiso   1.00
N126   N     0.73680   0.49324   0.91793   0.00000  Uiso   1.00
C127   C     0.68586   0.48799   0.91968   0.00000  Uiso   1.00
C128   C     0.67550   0.52733   1.00241   0.00000  Uiso   1.00
N129   N     0.71687   0.57021   0.08056   0.00000  Uiso   1.00
H130   H     0.88910   0.65008   0.22734   0.00000  Uiso   1.00
H131   H     0.65369   0.45348   0.85683   0.00000  Uiso   1.00
C132   C     0.27423   0.76081  -0.01602   0.00000  Uiso   1.00
C133   C     0.22318   0.76008   1.01465   0.00000  Uiso   1.00
N134   N     0.22516   0.80867   1.03347   0.00000  Uiso   1.00
C135   C     0.27624   0.85810   1.02372   0.00000  Uiso   1.00
C136   C     0.32759   0.85878  -0.00678   0.00000  Uiso   1.00
N137   N     0.32481   0.80981  -0.02589   0.00000  Uiso   1.00
N138   N     0.27288   0.71291  -0.03304   0.00000  Uiso   1.00
C139   C     0.22257   0.66393  -0.02080   0.00000  Uiso   1.00
C140   C     0.17095   0.66260   1.00973   0.00000  Uiso   1.00
N141   N     0.17269   0.71100   1.02651   0.00000  Uiso   1.00
H142   H     0.27707   0.89656   1.04126   0.00000  Uiso   1.00
H143   H     0.22301   0.62639  -0.03546   0.00000  Uiso   1.00
C144   C     0.53521   0.77921  -0.03088   0.00000  Uiso   1.00
C145   C     0.48477   0.73822   0.01291   0.00000  Uiso   1.00
N146   N     0.43792   0.74244   0.03852   0.00000  Uiso   1.00
C147   C     0.43968   0.78586   0.02295   0.00000  Uiso   1.00
C148   C     0.49118   0.82788  -0.01695   0.00000  Uiso   1.00
N149   N     0.53722   0.82278  -0.04373   0.00000  Uiso   1.00
N150   N     0.58245   0.77627  -0.05674   0.00000  Uiso   1.00
C151   C     0.58220   0.73472  -0.03899   0.00000  Uiso   1.00
C152   C     0.53186   0.69279   0.00416   0.00000  Uiso   1.00
N153   N     0.48386   0.69540   0.02938   0.00000  Uiso   1.00
H154   H     0.40240   0.78910   0.04587   0.00000  Uiso   1.00
H155   H     0.62076   0.73349  -0.06113   0.00000  Uiso   1.00
C156   C     0.41435   0.19477   0.89625   0.00000  Uiso   1.00
C157   C     0.46946   0.20280   0.87073   0.00000  Uiso   1.00
N158   N     0.51504   0.25173  -0.15217   0.00000  Uiso   1.00
C159   C     0.50843   0.29344   0.85109   0.00000  Uiso   1.00
C160   C     0.45441   0.28712   0.88304   0.00000  Uiso   1.00
N161   N     0.40824   0.23759   0.90418   0.00000  Uiso   1.00
N162   N     0.36909   0.14618   0.92138   0.00000  Uiso   1.00
C163   C     0.37703   0.10672   0.92737   0.00000  Uiso   1.00
C164   C     0.43288   0.11661   0.90979   0.00000  Uiso   1.00
N165   N     0.47767   0.16417   0.88005   0.00000  Uiso   1.00
H166   H     0.54611   0.33298  -0.16395   0.00000  Uiso   1.00
H167   H     0.34089   0.06922   0.95156   0.00000  Uiso   1.00
loop_
_geom_bond_atom_site_label_1
_geom_bond_atom_site_label_2
_geom_bond_distance
_geom_bond_site_symmetry_2
_ccdc_geom_bond_type
C0     O4      1.281   .     A
C0     O5      1.275   1_554 A
C0     C160    1.468   1_554 S
Ho1    O4      2.188   .     S
Ho1    O6      2.220   .     S
Ho1    O7      2.161   .     S
Ho1    O10     2.188   .     S
Ho1    O17     2.201   .     S
Ho1    O5      2.171   1_554 S
Ho1    O15     2.169   1_554 S
C2     O12     1.285   .     A
C2     O13     1.285   1_556 A
C2     C152    1.474   1_556 S
Ho3    O11     2.197   .     S
Ho3    O12     2.155   .     S
Ho3    O14     2.252   .     S
Ho3    O15     2.217   .     S
Ho3    O16     2.243   .     S
Ho3    O7      2.173   1_556 S
Ho3    O13     2.217   1_556 S
O5     C0      1.275   1_556 A
O5     Ho1     2.171   1_556 S
O6     C8      1.222   .     D
O7     C8      1.386   .     S
O7     Ho3     2.173   1_554 S
C8     C64     1.484   .     S
C9     O14     1.207   .     D
C9     O15     1.370   .     S
C9     C68     1.480   .     S
O10    C19     1.290   .     A
O11    C19     1.289   1_556 A
O13    C2      1.285   1_554 A
O13    Ho3     2.217   1_554 S
O15    Ho1     2.169   1_556 S
O16    C18     1.315   .     A
O17    C18     1.305   1_554 A
C18    O17     1.305   1_556 A
C18    C100    1.482   1_556 S
C19    O11     1.289   1_554 A
C19    C128    1.464   1_554 S
C20    O24     1.278   .     A
C20    C104    1.467   .     S
C20    O25     1.282   1_554 A
Ho21   O24     2.175   .     S
Ho21   O26     2.199   .     S
Ho21   O30     2.207   .     S
Ho21   O25     2.195   1_554 S
Ho21   O27     2.127   1_455 S
Ho21   O35     2.131   1_554 S
Ho21   O37     2.233   1_455 S
C22    O32     1.276   .     A
C22    C124    1.460   .     S
C22    O33     1.282   1_556 A
Ho23   O32     2.161   .     S
Ho23   O34     2.197   .     S
Ho23   O36     2.176   .     S
Ho23   O27     2.137   1_556 S
Ho23   O31     2.198   1_655 S
Ho23   O33     2.192   1_556 S
Ho23   O35     2.136   1_655 S
O25    C20     1.282   1_556 A
O25    Ho21    2.195   1_556 S
O26    C28     1.227   .     D
O27    Ho21    2.127   1_655 S
O27    Ho23    2.137   1_554 S
O27    C28     1.382   1_655 S
C28    O27     1.382   1_455 S
C28    C80     1.448   1_455 S
C29    O35     1.385   .     S
C29    C76     1.447   .     S
C29    O34     1.226   1_455 D
O30    C39     1.305   .     A
O31    Ho23    2.198   1_455 S
O31    C39     1.303   1_556 A
O33    C22     1.282   1_554 A
O33    Ho23    2.192   1_554 S
O34    C29     1.226   1_655 D
O35    Ho21    2.131   1_556 S
O35    Ho23    2.136   1_455 S
O36    C38     1.298   .     A
O37    Ho21    2.233   1_655 S
O37    C38     1.312   1_554 A
C38    O37     1.312   1_556 A
C38    C112    1.481   1_556 S
C39    O31     1.303   1_554 A
C39    C140    1.474   1_554 S
C40    O44     1.273   .     A
C40    O45     1.285   1_556 A
C40    C148    1.467   1_556 S
Ho41   O44     2.170   .     S
Ho41   O46     2.142   .     S
Ho41   O50     2.223   .     S
Ho41   O45     2.207   1_556 S
Ho41   O47     2.150   1_565 S
Ho41   O55     2.146   1_556 S
Ho41   O57     2.194   1_565 S
C42    O52     1.246   .     A
C42    O53     1.260   1_554 A
C42    C164    1.470   1_554 S
Ho43   O52     2.199   .     S
Ho43   O54     2.188   .     S
Ho43   O56     2.214   .     S
Ho43   O47     2.213   1_554 S
Ho43   O51     2.200   1_545 S
Ho43   O53     2.250   1_554 S
Ho43   O55     2.196   1_545 S
O45    C40     1.285   1_554 A
O45    Ho41    2.207   1_554 S
O46    C48     1.232   1_565 D
O47    C48     1.424   .     S
O47    Ho41    2.150   1_545 S
O47    Ho43    2.213   1_556 S
C48    C92     1.461   .     S
C48    O46     1.232   1_545 D
C49    O55     1.384   .     S
C49    C88     1.462   .     S
C49    O54     1.216   1_565 D
O50    C59     1.298   .     A
O51    Ho43    2.200   1_565 S
O51    C59     1.288   1_554 A
O53    C42     1.260   1_556 A
O53    Ho43    2.250   1_556 S
O54    C49     1.216   1_545 D
O55    Ho41    2.146   1_554 S
O55    Ho43    2.196   1_565 S
O56    C58     1.304   .     A
O57    Ho41    2.194   1_545 S
O57    C58     1.297   1_556 A
C58    O57     1.297   1_554 A
C58    C116    1.482   1_554 S
C59    O51     1.288   1_556 A
C59    C136    1.473   1_556 S
C60    C61     1.407   .     A
C60    N65     1.364   .     A
C60    N66     1.363   .     A
C61    N62     1.362   .     A
C61    N69     1.363   .     A
N62    C63     1.362   .     A
C63    C64     1.411   .     A
C63    H70     1.083   .     S
C64    N65     1.369   .     A
N66    C67     1.365   .     A
C67    C68     1.411   .     A
C67    H71     1.087   .     S
C68    N69     1.368   .     A
C72    N77     1.347   .     A
C72    N78     1.355   .     A
C72    C73     1.403   1_655 A
C73    N74     1.357   .     A
C73    N81     1.348   .     A
C73    C72     1.403   1_455 A
N74    C75     1.356   .     A
C75    C76     1.404   .     A
C75    H82     1.083   .     S
C76    N77     1.358   1_455 A
N77    C76     1.358   1_655 A
N78    C79     1.355   .     A
C79    C80     1.403   .     A
C79    H83     1.082   .     S
C80    N81     1.358   1_655 A
C80    C28     1.448   1_655 S
N81    C80     1.358   1_455 A
C84    N89     1.355   .     A
C84    N90     1.357   .     A
C84    C85     1.406   1_545 A
C85    N86     1.358   .     A
C85    N93     1.360   .     A
C85    C84     1.406   1_565 A
N86    C87     1.361   .     A
C87    C88     1.403   .     A
C87    H94     1.083   .     S
C88    N89     1.359   1_565 A
N89    C88     1.359   1_545 A
N90    C91     1.361   .     A
C91    C92     1.401   .     A
C91    H95     1.086   .     S
C92    N93     1.361   1_545 A
N93    C92     1.361   1_565 A
C96    N101    1.366   .     A
C96    N102    1.368   .     A
C96    C97     1.406   1_556 A
C97    N98     1.353   .     A
C97    N105    1.350   .     A
C97    C96     1.406   1_554 A
N98    C99     1.352   .     A
C99    C100    1.412   .     A
C99    H106    1.085   .     S
C100   N101    1.371   1_554 A
C100   C18     1.482   1_554 S
N101   C100    1.371   1_556 A
N102   C103    1.368   .     A
C103   H107    1.085   .     S
C103   C104    1.408   1_556 A
C104   N105    1.361   .     A
C104   C103    1.408   1_554 A
C108   N113    1.363   .     A
C108   N114    1.356   .     A
C108   C109    1.406   1_556 A
C109   N110    1.352   .     A
C109   N117    1.359   .     A
C109   C108    1.406   1_554 A
N110   C111    1.356   .     A
C111   C112    1.414   .     A
C111   H118    1.083   .     S
C112   N113    1.362   1_554 A
C112   C38     1.481   1_554 S
N113   C112    1.362   1_556 A
N114   C115    1.360   .     A
C115   C116    1.412   .     A
C115   H119    1.084   .     S
C116   N117    1.360   1_556 A
C116   C58     1.482   1_556 S
N117   C116    1.360   1_554 A
C120   N125    1.347   .     A
C120   N126    1.355   .     A
C120   C121    1.401   1_556 A
C121   N122    1.365   .     A
C121   N129    1.359   .     A
C121   C120    1.401   1_554 A
N122   C123    1.365   .     A
C123   H130    1.083   .     S
C123   C124    1.403   1_554 A
C124   N125    1.360   .     A
C124   C123    1.403   1_556 A
N126   C127    1.353   .     A
C127   C128    1.404   .     A
C127   H131    1.085   .     S
C128   N129    1.367   1_556 A
C128   C19     1.464   1_556 S
N129   C128    1.367   1_554 A
C132   N137    1.353   .     A
C132   N138    1.355   .     A
C132   C133    1.401   1_554 A
C133   N134    1.361   .     A
C133   N141    1.360   .     A
C133   C132    1.401   1_556 A
N134   C135    1.365   .     A
C135   H142    1.083   .     S
C135   C136    1.409   1_556 A
C136   N137    1.360   .     A
C136   C135    1.409   1_554 A
C136   C59     1.473   1_554 S
N138   C139    1.357   .     A
C139   H143    1.083   .     S
C139   C140    1.407   1_554 A
C140   N141    1.365   .     A
C140   C139    1.407   1_556 A
C140   C39     1.474   1_556 S
C144   C145    1.401   .     A
C144   N149    1.347   .     A
C144   N150    1.352   .     A
C145   N146    1.363   .     A
C145   N153    1.364   .     A
N146   C147    1.362   .     A
C147   C148    1.404   .     A
C147   H154    1.083   .     S
C148   N149    1.356   .     A
C148   C40     1.467   1_554 S
N150   C151    1.345   .     A
C151   C152    1.409   .     A
C151   H155    1.084   .     S
C152   N153    1.367   .     A
C152   C2      1.474   1_554 S
C156   C157    1.411   .     A
C156   N161    1.363   .     A
C156   N162    1.361   .     A
C157   N165    1.359   .     A
C157   N158    1.358   1_556 A
N158   C157    1.358   1_554 A
N158   C159    1.358   1_554 A
C159   C160    1.408   .     A
C159   N158    1.358   1_556 A
C159   H166    1.088   1_556 S
C160   N161    1.365   .     A
C160   C0      1.468   1_556 S
N162   C163    1.360   .     A
C163   C164    1.408   .     A
C163   H167    1.086   .     S
C164   N165    1.365   .     A
C164   C42     1.470   1_556 S
H166   C159    1.088   1_554 S
