data_kag+N394+E220
_audit_creation_date              2025-01-21
_audit_creation_method            'Materials Studio'
_symmetry_space_group_name_H-M    'P1'
_symmetry_Int_Tables_number       1
_symmetry_cell_setting            triclinic
loop_
_symmetry_equiv_pos_as_xyz
  x,y,z
_cell_length_a                    22.6150
_cell_length_b                    25.0319
_cell_length_c                    10.7284
_cell_angle_alpha                 79.6485
_cell_angle_beta                  99.2790
_cell_angle_gamma                 110.2813
loop_
_atom_site_label
_atom_site_type_symbol
_atom_site_fract_x
_atom_site_fract_y
_atom_site_fract_z
_atom_site_U_iso_or_equiv
_atom_site_adp_type
_atom_site_occupancy
Pr0    Pr    0.52841   0.56284   0.04237   0.00000  Uiso   1.00
Pr1    Pr    0.50672   0.43841   1.07008   0.00000  Uiso   1.00
O2     O     0.40141   0.43294   1.05199   0.00000  Uiso   1.00
O3     O     0.42038   0.53000   0.03433   0.00000  Uiso   1.00
O4     O     0.53726   0.65045   0.92804   0.00000  Uiso   1.00
O5     O     0.53993   0.64170   0.13289   0.00000  Uiso   1.00
O6     O     0.52274   0.49736   0.21483   0.00000  Uiso   1.00
O7     O     0.53970   0.58743   0.24034   0.00000  Uiso   1.00
C8     C     0.50436   0.46426   0.81842   0.00000  Uiso   1.00
C9     C     0.38256   0.47733   0.03998   0.00000  Uiso   1.00
C10    C     0.53982   0.67404   1.02582   0.00000  Uiso   1.00
C11    C     0.49458   0.32650   0.07521   0.00000  Uiso   1.00
C12    C     0.65234   0.52592   1.06718   0.00000  Uiso   1.00
C13    C     0.53318   0.53849   0.29435   0.00000  Uiso   1.00
O14    O     0.63322   0.56987   0.05712   0.00000  Uiso   1.00
O15    O     0.61478   0.47293   1.07591   0.00000  Uiso   1.00
O16    O     0.50015   0.34874   0.17646   0.00000  Uiso   1.00
O17    O     0.49306   0.36080   0.97168   0.00000  Uiso   1.00
O18    O     0.51384   0.50462   0.89879   0.00000  Uiso   1.00
O19    O     0.49652   0.41495   0.87093   0.00000  Uiso   1.00
Pr20   Pr    0.97740   0.44937   0.97349   0.00000  Uiso   1.00
Pr21   Pr    0.04798   0.57341  -0.03518   0.00000  Uiso   1.00
O22    O     0.94775   0.57951  -0.03932   0.00000  Uiso   1.00
O23    O     0.89609   0.48436   0.94978   0.00000  Uiso   1.00
O24    O     0.92063   0.36288   0.07360   0.00000  Uiso   1.00
O25    O     0.92035   0.37235   0.87005   0.00000  Uiso   1.00
O26    O     0.01042   0.51667   0.81154   0.00000  Uiso   1.00
O27    O     0.95591   0.42806   0.77201   0.00000  Uiso   1.00
C28    C     0.04246   0.54413   0.21319   0.00000  Uiso   1.00
C29    C     0.89707   0.53464   0.96455   0.00000  Uiso   1.00
C30    C     0.89709   0.34096  -0.02965   0.00000  Uiso   1.00
C31    C     0.11595   0.68556   0.96635   0.00000  Uiso   1.00
C32    C     0.12926   0.48530  -0.00342   0.00000  Uiso   1.00
C33    C    -0.01533   0.47701   0.72568   0.00000  Uiso   1.00
O34    O     0.07713   0.44175   0.99133   0.00000  Uiso   1.00
O35    O     0.13145   0.53851  -0.01251   0.00000  Uiso   1.00
O36    O     0.09543   0.66261   0.86374   0.00000  Uiso   1.00
O37    O     0.10049   0.65125   0.06873   0.00000  Uiso   1.00
O38    O     1.01630   0.50556   0.12568   0.00000  Uiso   1.00
O39    O     0.07088   0.59351   0.16875   0.00000  Uiso   1.00
Pr40   Pr    0.58125   0.04416  -0.09063   0.00000  Uiso   1.00
Pr41   Pr    0.43099   0.97291   0.93238   0.00000  Uiso   1.00
O42    O     0.42545   0.05763  -0.02615   0.00000  Uiso   1.00
O43    O     0.53154   0.10218  -0.03093   0.00000  Uiso   1.00
O44    O     0.64093   0.13205   0.82880   0.00000  Uiso   1.00
O45    O     0.67978   0.08870   0.00003   0.00000  Uiso   1.00
O46    O     0.52415   0.98106   0.07109   0.00000  Uiso   1.00
O47    O     0.56930   0.06601   0.10691   0.00000  Uiso   1.00
C48    C     0.47718   0.98480   0.69533   0.00000  Uiso   1.00
C49    C     0.47569   0.10167  -0.01506   0.00000  Uiso   1.00
C50    C     0.68642   0.13414   0.91752   0.00000  Uiso   1.00
C51    C     0.31100   0.90416  -0.04729   0.00000  Uiso   1.00
C52    C     0.51143   0.89684   0.95280   0.00000  Uiso   1.00
C53    C     0.53949   0.01972   0.15911   0.00000  Uiso   1.00
O54    O     0.55557   0.94330   0.98530   0.00000  Uiso   1.00
O55    O     0.45617   0.89718   0.90327   0.00000  Uiso   1.00
O56    O     0.35449   0.90958   0.04613   0.00000  Uiso   1.00
O57    O     0.32763   0.93863   0.85132   0.00000  Uiso   1.00
O58    O     0.49007   0.02799   0.77122   0.00000  Uiso   1.00
O59    O     0.44463   0.93970   0.74928   0.00000  Uiso   1.00
C60    C     0.53171   0.52262   0.43111   0.00000  Uiso   1.00
C61    C     0.55138   0.47633   0.49484   0.00000  Uiso   1.00
C62    C     0.53941   0.45552   0.62060   0.00000  Uiso   1.00
C63    C     0.50945   0.48141   0.68360   0.00000  Uiso   1.00
C64    C     0.49294   0.52921   0.62264   0.00000  Uiso   1.00
C65    C     0.50352   0.54953   0.49615   0.00000  Uiso   1.00
O66    O     0.64661   0.46065   0.48030   0.00000  Uiso   1.00
O67    O     0.55767   0.41056   0.37041   0.00000  Uiso   1.00
N68    N     0.58747   0.45260   0.43642   0.00000  Uiso   1.00
H69    H     0.47099   0.55023   0.67236   0.00000  Uiso   1.00
H70    H     0.48767   0.58493   0.44807   0.00000  Uiso   1.00
H71    H     0.55587   0.42067   0.67063   0.00000  Uiso   1.00
C72    C    -0.00286   0.49290   0.59304   0.00000  Uiso   1.00
C73    C    -0.02748   0.45375   0.50350   0.00000  Uiso   1.00
C74    C    -0.01010   0.47090   0.38060   0.00000  Uiso   1.00
C75    C     0.03074   0.52658   0.34550   0.00000  Uiso   1.00
C76    C     1.05457   0.56559   0.43354   0.00000  Uiso   1.00
C77    C     1.03798   0.54871   0.55700   0.00000  Uiso   1.00
O78    O    -0.13109   0.38719   0.48851   0.00000  Uiso   1.00
O79    O    -0.05175   0.35552   0.58851   0.00000  Uiso   1.00
N80    N    -0.07191   0.39770   0.53347   0.00000  Uiso   1.00
H81    H     1.08548   0.60889   0.40692   0.00000  Uiso   1.00
H82    H     1.05724   0.57961   0.62417   0.00000  Uiso   1.00
H83    H    -0.02984   0.44080   0.31175   0.00000  Uiso   1.00
C84    C     0.52558   0.00948   0.29892   0.00000  Uiso   1.00
C85    C     0.55727   0.05112   0.38444   0.00000  Uiso   1.00
C86    C     0.54051   0.04267   0.51066   0.00000  Uiso   1.00
C87    C     0.49491  -0.00765   0.56029   0.00000  Uiso   1.00
C88    C     0.46548   0.95010   0.47792   0.00000  Uiso   1.00
C89    C     0.47984   0.95885   0.34975   0.00000  Uiso   1.00
O90    O     0.61526   0.14936   0.39009   0.00000  Uiso   1.00
O91    O     0.65678   0.09717   0.30501   0.00000  Uiso   1.00
N92    N     0.60848   0.10189   0.34744   0.00000  Uiso   1.00
H93    H     0.43027   0.91052   0.51253   0.00000  Uiso   1.00
H94    H     0.45393   0.92623   0.28918   0.00000  Uiso   1.00
H95    H     0.56505   0.07523   0.57239   0.00000  Uiso   1.00
C96    C     0.31452   0.46970   1.03591   0.00000  Uiso   1.00
C97    C     0.26618   0.43830   0.94864   0.00000  Uiso   1.00
C98    C     0.20399   0.44030   0.94263   0.00000  Uiso   1.00
C99    C     0.19067   0.47493   0.01637   0.00000  Uiso   1.00
C100   C     0.23838   0.50429   0.10373   0.00000  Uiso   1.00
C101   C     0.29920   0.50124   0.11413   0.00000  Uiso   1.00
O102   O     0.23380   0.36835   0.80553   0.00000  Uiso   1.00
O103   O     0.33451   0.42675   0.81495   0.00000  Uiso   1.00
N104   N     0.27955   0.40849   0.85891   0.00000  Uiso   1.00
H105   H     0.22890   0.53076   0.16232   0.00000  Uiso   1.00
H106   H     0.33537   0.52551   0.18120   0.00000  Uiso   1.00
H107   H     0.16709   0.41842   0.87343   0.00000  Uiso   1.00
C108   C     0.84491   0.28539  -0.03542   0.00000  Uiso   1.00
C109   C     0.79648   0.26919   1.03884   0.00000  Uiso   1.00
C110   C     0.74090   0.22379   1.01158   0.00000  Uiso   1.00
C111   C     0.74023   0.18675   0.92819   0.00000  Uiso   1.00
C112   C     0.79005   0.20192  -0.14669   0.00000  Uiso   1.00
C113   C     0.84084   0.25264  -0.13238   0.00000  Uiso   1.00
O114   O     0.75057   0.31185   1.15660   0.00000  Uiso   1.00
O115   O     0.83498   0.28697   0.24891   0.00000  Uiso   1.00
N116   N     0.79915   0.29702   0.14583   0.00000  Uiso   1.00
H117   H     0.78841   0.17603  -0.21839   0.00000  Uiso   1.00
H118   H     0.87741   0.26607  -0.19599   0.00000  Uiso   1.00
H119   H     0.69750   0.21981   1.05149   0.00000  Uiso   1.00
C120   C     0.83740   0.53693   1.00086   0.00000  Uiso   1.00
C121   C     0.79753   0.48751   1.07010   0.00000  Uiso   1.00
C122   C     0.74111   0.48766   1.10331   0.00000  Uiso   1.00
C123   C     0.72024   0.53496   0.06336   0.00000  Uiso   1.00
C124   C     0.76073   0.58534   0.00075   0.00000  Uiso   1.00
C125   C     0.82005   0.58692  -0.02733   0.00000  Uiso   1.00
O126   O     0.84621   0.42003   1.18218   0.00000  Uiso   1.00
O127   O     0.78465   0.40115   0.99733   0.00000  Uiso   1.00
N128   N     0.80739   0.43322   1.08787   0.00000  Uiso   1.00
H129   H     0.74563   0.62258  -0.03125   0.00000  Uiso   1.00
H130   H     0.85000   0.62558  -0.07846   0.00000  Uiso   1.00
H131   H     0.71018   0.44760   1.14916   0.00000  Uiso   1.00
C132   C     0.24996   0.85620  -0.04045   0.00000  Uiso   1.00
C133   C     0.20800   0.84003   0.84921   0.00000  Uiso   1.00
C134   C     0.16282   0.78465   0.85352   0.00000  Uiso   1.00
C135   C     0.15690   0.74606   0.96686   0.00000  Uiso   1.00
C136   C     0.19422   0.76445   0.07861   0.00000  Uiso   1.00
C137   C     0.24062   0.81861   0.07470   0.00000  Uiso   1.00
O138   O     0.20939   0.85799   0.62502   0.00000  Uiso   1.00
O139   O     0.20920   0.92907   0.72687   0.00000  Uiso   1.00
N140   N     0.21232   0.87775   0.73105   0.00000  Uiso   1.00
H141   H     0.19048   0.73561   0.16741   0.00000  Uiso   1.00
H142   H     0.27239   0.82941   0.16038   0.00000  Uiso   1.00
H143   H     0.13297   0.77138   0.76739   0.00000  Uiso   1.00
C144   C     0.52230   0.84108  -0.01655   0.00000  Uiso   1.00
C145   C     0.47986   0.79359   0.05240   0.00000  Uiso   1.00
C146   C     0.48835   0.73984   0.06953   0.00000  Uiso   1.00
C147   C     0.53674   0.73219   1.01571   0.00000  Uiso   1.00
C148   C     0.57793   0.77896   0.94540   0.00000  Uiso   1.00
C149   C     0.57154   0.83334   0.93162   0.00000  Uiso   1.00
O150   O     0.37412   0.75811   0.10803   0.00000  Uiso   1.00
O151   O     0.43742   0.84336   0.16423   0.00000  Uiso   1.00
N152   N     0.42846   0.79925   0.10665   0.00000  Uiso   1.00
H153   H     0.61490   0.77324   0.90178   0.00000  Uiso   1.00
H154   H     0.60344   0.86896   0.87620   0.00000  Uiso   1.00
H155   H     0.45613   0.70348   0.12288   0.00000  Uiso   1.00
C156   C     0.48820   0.26575   1.07422   0.00000  Uiso   1.00
C157   C     0.53690   0.24117   1.12596   0.00000  Uiso   1.00
C158   C     0.52737   0.18501   1.10337   0.00000  Uiso   1.00
C159   C     0.47409   0.15412   0.02749   0.00000  Uiso   1.00
C160   C     0.42608   0.17775  -0.01872   0.00000  Uiso   1.00
C161   C     0.43342   0.23322   0.00392   0.00000  Uiso   1.00
O162   O     0.64090   0.24713   0.22375   0.00000  Uiso   1.00
O163   O     0.61647   0.32812   1.18290   0.00000  Uiso   1.00
N164   N     0.59813   0.27232   1.18946   0.00000  Uiso   1.00
H165   H     0.38550   0.15542  -0.07974   0.00000  Uiso   1.00
H166   H     0.39675   0.25171  -0.03758   0.00000  Uiso   1.00
H167   H     0.56423   0.16614   1.13847   0.00000  Uiso   1.00
loop_
_geom_bond_atom_site_label_1
_geom_bond_atom_site_label_2
_geom_bond_distance
_geom_bond_site_symmetry_2
_ccdc_geom_bond_type
Pr0    O3      2.284   .     S
Pr0    O5      2.271   .     S
Pr0    O6      2.229   .     S
Pr0    O7      2.267   .     S
Pr0    O14     2.296   .     S
Pr0    O4      2.272   1_554 S
Pr0    O18     2.217   1_554 S
Pr1    O2      2.316   .     S
Pr1    O15     2.287   .     S
Pr1    O17     2.280   .     S
Pr1    O18     2.228   .     S
Pr1    O19     2.272   .     S
Pr1    O6      2.234   1_556 S
Pr1    O16     2.295   1_556 S
O2     C9      1.301   1_556 A
O3     C9      1.296   .     A
O4     C10     1.278   .     A
O4     Pr0     2.272   1_556 S
O5     C10     1.281   1_554 A
O6     C13     1.388   .     S
O6     Pr1     2.234   1_554 S
O7     C13     1.227   .     D
C8     O18     1.383   .     S
C8     O19     1.226   .     D
C8     C63     1.444   .     S
C9     O2      1.301   1_554 A
C9     C96     1.478   1_554 S
C10    C147    1.465   .     S
C10    O5      1.281   1_556 A
C11    O16     1.277   .     A
C11    O17     1.280   1_554 A
C11    C156    1.479   1_554 S
C12    O15     1.300   .     A
C12    O14     1.296   1_556 A
C12    C123    1.479   1_556 S
C13    C60     1.452   .     S
O14    C12     1.296   1_554 A
O16    Pr1     2.295   1_554 S
O17    C11     1.280   1_556 A
O18    Pr0     2.217   1_556 S
Pr20   O23     2.258   .     S
Pr20   O25     2.279   .     S
Pr20   O27     2.256   .     S
Pr20   O24     2.274   1_556 S
Pr20   O26     2.216   1_655 S
Pr20   O34     2.303   1_655 S
Pr20   O38     2.219   1_556 S
Pr21   O35     2.303   .     S
Pr21   O37     2.280   .     S
Pr21   O39     2.271   .     S
Pr21   O22     2.317   1_455 S
Pr21   O26     2.235   1_554 S
Pr21   O36     2.271   1_554 S
Pr21   O38     2.209   1_455 S
O22    Pr21    2.317   1_655 S
O22    C29     1.297   1_554 A
O23    C29     1.289   .     A
O24    C30     1.280   .     A
O24    Pr20    2.274   1_554 S
O25    C30     1.282   1_556 A
O26    C33     1.389   .     S
O26    Pr20    2.216   1_455 S
O26    Pr21    2.235   1_556 S
O27    C33     1.226   1_655 D
C28    O39     1.227   .     D
C28    C75     1.447   .     S
C28    O38     1.383   1_455 S
C29    C120    1.486   .     S
C29    O22     1.297   1_556 A
C30    C108    1.484   .     S
C30    O25     1.282   1_554 A
C31    O36     1.279   .     A
C31    C135    1.476   .     S
C31    O37     1.282   1_556 A
C32    O35     1.302   .     A
C32    C99     1.475   .     S
C32    O34     1.300   1_554 A
C33    C72     1.453   .     S
C33    O27     1.226   1_455 D
O34    Pr20    2.303   1_455 S
O34    C32     1.300   1_556 A
O36    Pr21    2.271   1_556 S
O37    C31     1.282   1_554 A
O38    Pr20    2.219   1_554 S
O38    Pr21    2.209   1_655 S
O38    C28     1.383   1_655 S
Pr40   O43     2.341   .     S
Pr40   O45     2.263   .     S
Pr40   O47     2.360   .     S
Pr40   O44     2.246   1_554 S
Pr40   O46     2.344   1_545 S
Pr40   O54     2.402   1_544 S
Pr40   O58     2.294   1_554 S
Pr41   O55     2.244   .     S
Pr41   O57     2.276   .     S
Pr41   O59     2.367   .     S
Pr41   O42     2.292   1_566 S
Pr41   O46     2.344   1_556 S
Pr41   O56     2.254   1_556 S
Pr41   O58     2.299   1_565 S
O42    C49     1.287   .     A
O42    Pr41    2.292   1_544 S
O43    C49     1.297   .     A
O44    C50     1.278   .     A
O44    Pr40    2.246   1_556 S
O45    C50     1.289   1_554 A
O46    Pr40    2.344   1_565 S
O46    Pr41    2.344   1_554 S
O46    C53     1.392   1_565 S
O47    C53     1.207   .     D
C48    O59     1.216   .     D
C48    O58     1.392   1_565 S
C48    C87     1.527   1_565 S
C49    C159    1.479   .     S
C50    C111    1.458   .     S
C50    O45     1.289   1_556 A
C51    O56     1.276   .     A
C51    C132    1.485   .     S
C51    O57     1.280   1_554 A
C52    O54     1.304   .     A
C52    O55     1.279   .     A
C52    C144    1.471   1_556 S
C53    C84     1.540   .     S
C53    O46     1.392   1_545 S
O54    Pr40    2.402   1_566 S
O56    Pr41    2.254   1_554 S
O57    C51     1.280   1_556 A
O58    Pr40    2.294   1_556 S
O58    Pr41    2.299   1_545 S
O58    C48     1.392   1_545 S
C60    C61     1.408   .     A
C60    C65     1.399   .     A
C61    C62     1.390   .     A
C61    N68     1.431   .     S
C62    C63     1.395   .     A
C62    H71     1.086   .     S
C63    C64     1.396   .     A
C64    C65     1.389   .     A
C64    H69     1.084   .     S
C65    H70     1.084   .     S
O66    N68     1.302   .     A
O67    N68     1.298   .     A
C72    C73     1.407   .     A
C72    C77     1.407   1_455 A
C73    C74     1.387   .     A
C73    N80     1.430   .     S
C74    C75     1.403   .     A
C74    H83     1.083   .     S
C75    C76     1.392   1_455 A
C76    C77     1.387   .     A
C76    H81     1.083   .     S
C76    C75     1.392   1_655 A
C77    H82     1.083   .     S
C77    C72     1.407   1_655 A
O78    N80     1.299   .     A
O79    N80     1.301   .     A
C84    C85     1.434   .     A
C84    C89     1.414   1_545 A
C85    C86     1.425   .     A
C85    N92     1.435   .     S
C86    C87     1.403   .     A
C86    H95     1.083   .     S
C87    C88     1.415   1_545 A
C87    C48     1.527   1_545 S
C88    C89     1.425   .     A
C88    H93     1.082   .     S
C88    C87     1.415   1_565 A
C89    H94     1.081   .     S
C89    C84     1.414   1_565 A
O90    N92     1.300   .     A
O91    N92     1.297   .     A
C96    C97     1.424   .     A
C96    C101    1.403   1_556 A
C96    C9      1.478   1_556 S
C97    C98     1.415   .     A
C97    N104    1.443   .     S
C98    H107    1.085   .     S
C98    C99     1.404   1_556 A
C99    C100    1.398   .     A
C99    C98     1.404   1_554 A
C100   C101    1.389   .     A
C100   H105    1.082   .     S
C101   H106    1.086   .     S
C101   C96     1.403   1_554 A
O102   N104    1.305   .     A
O103   N104    1.301   .     A
C108   C113    1.409   .     A
C108   C109    1.362   1_554 D
C109   C110    1.403   .     A
C109   C108    1.362   1_556 D
C109   N116    1.429   1_556 S
C110   C111    1.394   .     A
C110   H119    1.100   .     S
C111   C112    1.394   1_556 A
C112   C113    1.399   .     A
C112   H117    1.080   .     S
C112   C111    1.394   1_554 A
C113   H118    1.081   .     S
O114   N116    1.303   1_556 A
O115   N116    1.302   .     A
N116   C109    1.429   1_554 S
N116   O114    1.303   1_554 A
C120   C121    1.417   .     A
C120   C125    1.406   1_556 A
C121   C122    1.380   .     A
C121   N128    1.427   .     S
C122   H131    1.088   .     S
C122   C123    1.396   1_556 A
C123   C124    1.405   .     A
C123   C122    1.396   1_554 A
C123   C12     1.479   1_554 S
C124   C125    1.408   .     A
C124   H129    1.082   .     S
C125   H130    1.082   .     S
C125   C120    1.406   1_554 A
O126   N128    1.303   .     A
O127   N128    1.298   .     A
C132   C137    1.409   .     A
C132   C133    1.418   1_554 A
C133   C134    1.406   .     A
C133   N140    1.433   .     S
C133   C132    1.418   1_556 A
C134   C135    1.404   .     A
C134   H143    1.083   .     S
C135   C136    1.401   1_556 A
C136   C137    1.396   .     A
C136   H141    1.083   .     S
C136   C135    1.401   1_554 A
C137   H142    1.084   .     S
O138   N140    1.303   .     A
O139   N140    1.303   .     A
C144   C145    1.416   .     A
C144   C149    1.405   1_554 A
C144   C52     1.471   1_554 S
C145   C146    1.400   .     A
C145   N152    1.439   .     S
C146   H155    1.084   .     S
C146   C147    1.399   1_554 A
C147   C148    1.400   .     A
C147   C146    1.399   1_556 A
C148   C149    1.398   .     A
C148   H153    1.083   .     S
C149   H154    1.082   .     S
C149   C144    1.405   1_556 A
O150   N152    1.302   .     A
O151   N152    1.301   .     A
C156   C157    1.432   .     A
C156   C161    1.409   1_556 A
C156   C11     1.479   1_556 S
C157   C158    1.406   .     A
C157   N164    1.459   .     S
C158   H167    1.081   .     S
C158   C159    1.406   1_556 A
C159   C160    1.393   .     A
C159   C158    1.406   1_554 A
C160   C161    1.401   .     A
C160   H165    1.080   .     S
C161   H166    1.083   .     S
C161   C156    1.409   1_554 A
O162   N164    1.301   1_554 A
O163   N164    1.304   .     A
N164   O162    1.301   1_556 A
