data_kag+N205+E220
_audit_creation_date              2025-01-21
_audit_creation_method            'Materials Studio'
_symmetry_space_group_name_H-M    'P1'
_symmetry_Int_Tables_number       1
_symmetry_cell_setting            triclinic
loop_
_symmetry_equiv_pos_as_xyz
  x,y,z
_cell_length_a                    27.1933
_cell_length_b                    27.2007
_cell_length_c                    10.5232
_cell_angle_alpha                 85.9521
_cell_angle_beta                  91.5352
_cell_angle_gamma                 120.3943
loop_
_atom_site_label
_atom_site_type_symbol
_atom_site_fract_x
_atom_site_fract_y
_atom_site_fract_z
_atom_site_U_iso_or_equiv
_atom_site_adp_type
_atom_site_occupancy
Y0     Y     0.55910   0.48440   0.03147   0.00000  Uiso   1.00
Y1     Y     0.42793   0.50528   1.03349   0.00000  Uiso   1.00
C2     C     0.49332   0.62017   0.04319   0.00000  Uiso   1.00
C3     C     0.49128   0.48728   0.25988   0.00000  Uiso   1.00
C4     C     0.67179   0.51897   1.03223   0.00000  Uiso   1.00
C5     C     0.49938   0.36865   1.03245   0.00000  Uiso   1.00
C6     C     0.49072   0.49504   0.80780   0.00000  Uiso   1.00
C7     C     0.32007   0.48393  -0.00060   0.00000  Uiso   1.00
O8     O     0.48969   0.59402   0.94599   0.00000  Uiso   1.00
O9     O     0.46675   0.58648   0.13735   0.00000  Uiso   1.00
O10    O     0.53765   0.51840   0.19746   0.00000  Uiso   1.00
O11    O     0.44443   0.46007   0.20112   0.00000  Uiso   1.00
O12    O     0.64356   0.51448   0.93263   0.00000  Uiso   1.00
O13    O     0.64257   0.50929   0.13131   0.00000  Uiso   1.00
O14    O     0.50896   0.39594   0.13053   0.00000  Uiso   1.00
O15    O     0.51772   0.40131   0.93311   0.00000  Uiso   1.00
O16    O     0.44446   0.46638   0.87107   0.00000  Uiso   1.00
O17    O     0.53719   0.52549   0.86482   0.00000  Uiso   1.00
O18    O     0.34013   0.48087   0.10707   0.00000  Uiso   1.00
O19    O     0.35395   0.49262   0.91031   0.00000  Uiso   1.00
Y20    Y     0.07322   0.57670  -0.00792   0.00000  Uiso   1.00
Y21    Y     0.92750   0.44115   1.00851   0.00000  Uiso   1.00
C22    C     0.86873   0.49644   1.03014   0.00000  Uiso   1.00
C23    C    -0.00042   0.50711   0.22574   0.00000  Uiso   1.00
C24    C     0.15426   0.68757   1.00922   0.00000  Uiso   1.00
C25    C     0.12989   0.51933  -0.02672   0.00000  Uiso   1.00
C26    C    -0.00169   0.51194   0.77329   0.00000  Uiso   1.00
C27    C     0.84702   0.33151  -0.02483   0.00000  Uiso   1.00
O28    O     0.89770   0.50208   0.93285   0.00000  Uiso   1.00
O29    O     0.87309   0.46491   0.11689   0.00000  Uiso   1.00
O30    O     0.01263   0.55236   0.15637   0.00000  Uiso   1.00
O31    O     0.98637   0.46112   0.17429   0.00000  Uiso   1.00
O32    O     0.12752   0.66756   0.90863   0.00000  Uiso   1.00
O33    O     0.13584   0.65122   0.10292   0.00000  Uiso   1.00
O34    O     0.10226   0.51555   0.07147   0.00000  Uiso   1.00
O35    O     0.12480   0.54946   0.88343   0.00000  Uiso   1.00
O36    O     0.98738   0.46712   0.84235   0.00000  Uiso   1.00
O37    O     0.01521   0.55862   0.82507   0.00000  Uiso   1.00
O38    O     0.86881   0.34919   0.08165   0.00000  Uiso   1.00
O39    O     0.87152   0.36899   0.88569   0.00000  Uiso   1.00
Y40    Y     0.50884   0.07276  -0.00781   0.00000  Uiso   1.00
Y41    Y     0.49678   0.92563   1.00809   0.00000  Uiso   1.00
C42    C     0.38120   0.87369   1.00673   0.00000  Uiso   1.00
C43    C     0.50623  -0.00230   0.22615   0.00000  Uiso   1.00
C44    C     0.47412   0.14882   1.01950   0.00000  Uiso   1.00
C45    C     0.62374   0.13466  -0.03544   0.00000  Uiso   1.00
C46    C     0.50534   0.00262   0.77542   0.00000  Uiso   1.00
C47    C     0.52680   0.84432   0.02118   0.00000  Uiso   1.00
O48    O     0.41140   0.88469   0.90869   0.00000  Uiso   1.00
O49    O     0.41109   0.89180   0.10434   0.00000  Uiso   1.00
O50    O     0.47331   0.01045   0.16267   0.00000  Uiso   1.00
O51    O     0.53679   0.98323   0.16797   0.00000  Uiso   1.00
O52    O     0.47101   0.12651   0.91662   0.00000  Uiso   1.00
O53    O     0.49088   0.12830   0.10974   0.00000  Uiso   1.00
O54    O     0.59891   0.10382   0.06372   0.00000  Uiso   1.00
O55    O     0.58917   0.13042   0.87830   0.00000  Uiso   1.00
O56    O     0.53735   0.98995   0.84298   0.00000  Uiso   1.00
O57    O     0.47294   0.01632   0.82885   0.00000  Uiso   1.00
O58    O     0.51691   0.86336   0.11691   0.00000  Uiso   1.00
O59    O     0.52476   0.87017   0.91899   0.00000  Uiso   1.00
C60    C     0.49110   0.48596   0.40117   0.00000  Uiso   1.00
C61    C     0.53829   0.49238   0.47418   0.00000  Uiso   1.00
C62    C     0.53791   0.49643   0.60653   0.00000  Uiso   1.00
C63    C     0.49069   0.49192   0.66840   0.00000  Uiso   1.00
C64    C     0.44338   0.48365   0.59650   0.00000  Uiso   1.00
C65    C     0.44378   0.48114   0.46430   0.00000  Uiso   1.00
O66    O     0.63661   0.52300   0.45766   0.00000  Uiso   1.00
O67    O     0.57459   0.44974   0.34615   0.00000  Uiso   1.00
N68    N     0.58491   0.49090   0.41762   0.00000  Uiso   1.00
H69    H     0.40655   0.48050   0.64219   0.00000  Uiso   1.00
H70    H     0.40740   0.47684   0.41075   0.00000  Uiso   1.00
H71    H     0.57376   0.50069   0.66218   0.00000  Uiso   1.00
C72    C     0.99463   0.50995   0.63286   0.00000  Uiso   1.00
C73    C     0.98789   0.55038   0.55308   0.00000  Uiso   1.00
C74    C     0.99080   0.54957   0.42024   0.00000  Uiso   1.00
C75    C    -0.00224   0.50791   0.36539   0.00000  Uiso   1.00
C76    C     0.00194   0.46666   0.44465   0.00000  Uiso   1.00
C77    C     0.00080   0.46792   0.57673   0.00000  Uiso   1.00
O78    O     0.99434   0.64079   0.54689   0.00000  Uiso   1.00
O79    O     0.93570   0.57288   0.69077   0.00000  Uiso   1.00
N80    N     0.97540   0.59048   0.60425   0.00000  Uiso   1.00
H81    H     0.00741   0.43409   0.40471   0.00000  Uiso   1.00
H82    H     0.00593   0.43641   0.63529   0.00000  Uiso   1.00
H83    H     0.98545   0.58035   0.35934   0.00000  Uiso   1.00
C84    C     0.50718   0.99832   0.36726   0.00000  Uiso   1.00
C85    C     0.55080  -0.00299   0.44170   0.00000  Uiso   1.00
C86    C     0.54977  -0.00133   0.57443   0.00000  Uiso   1.00
C87    C     0.50606   0.00143   0.63536   0.00000  Uiso   1.00
C88    C     0.46283   1.00246   0.56157   0.00000  Uiso   1.00
C89    C     0.46358   1.00119   0.42934   0.00000  Uiso   1.00
O90    O     0.64878   0.03629   0.39763   0.00000  Uiso   1.00
O91    O     0.58810  -0.05366   0.34762   0.00000  Uiso   1.00
N92    N     0.59674  -0.00532   0.38490   0.00000  Uiso   1.00
H93    H     0.42785   1.00347   0.60611   0.00000  Uiso   1.00
H94    H     0.42917   1.00157   0.37550   0.00000  Uiso   1.00
H95    H     0.58358  -0.00206   0.63003   0.00000  Uiso   1.00
C96    C     0.26557   0.48324  -0.01958   0.00000  Uiso   1.00
C97    C     0.25697   0.51181  -0.12857   0.00000  Uiso   1.00
C98    C     0.20857   0.51745   0.86510   0.00000  Uiso   1.00
C99    C     0.16976   0.49773  -0.03254   0.00000  Uiso   1.00
C100   C     0.17662   0.46681   0.07206   0.00000  Uiso   1.00
C101   C     0.22416   0.45963   0.07829   0.00000  Uiso   1.00
O102   O     0.28522   0.53882   0.65497   0.00000  Uiso   1.00
O103   O     0.34967   0.58323  -0.19416   0.00000  Uiso   1.00
N104   N     0.29989   0.54160   0.77423   0.00000  Uiso   1.00
H105   H     0.14693   0.45088   0.15188   0.00000  Uiso   1.00
H106   H     0.22980   0.43760   0.16238   0.00000  Uiso   1.00
H107   H     0.20428   0.54225   0.78475   0.00000  Uiso   1.00
C108   C     0.79468   0.27559  -0.04090   0.00000  Uiso   1.00
C109   C     0.75931   0.26651  -0.14867   0.00000  Uiso   1.00
C110   C     0.70578   0.21671  -0.15077   0.00000  Uiso   1.00
C111   C     0.68543   0.17661  -0.04552   0.00000  Uiso   1.00
C112   C     0.72153   0.18423   0.05808   0.00000  Uiso   1.00
C113   C     0.77585   0.23304   0.05979   0.00000  Uiso   1.00
O114   O     0.76719   0.29776   0.63340   0.00000  Uiso   1.00
O115   O     0.77656   0.35828  -0.22100   0.00000  Uiso   1.00
N116   N     0.77285   0.31053  -0.24824   0.00000  Uiso   1.00
H117   H     0.70677   0.15399   0.14058   0.00000  Uiso   1.00
H118   H     0.80204   0.23885   0.14324   0.00000  Uiso   1.00
H119   H     0.67773   0.21240  -0.22986   0.00000  Uiso   1.00
C120   C     0.82823   0.51767   1.03543   0.00000  Uiso   1.00
C121   C     0.80523   0.52160   0.15147   0.00000  Uiso   1.00
C122   C     0.75674   0.52742   0.14834   0.00000  Uiso   1.00
C123   C     0.73039   0.52866   1.03284   0.00000  Uiso   1.00
C124   C     0.75676   0.53083   0.91846   0.00000  Uiso   1.00
C125   C     0.80543   0.52587   0.91977   0.00000  Uiso   1.00
O126   O     0.83923   0.55711   0.35365   0.00000  Uiso   1.00
O127   O     0.82680   0.47147   0.31644   0.00000  Uiso   1.00
N128   N     0.82899   0.51870   0.27352   0.00000  Uiso   1.00
H129   H     0.73769   0.53266   0.82786   0.00000  Uiso   1.00
H130   H     0.82246   0.52371   0.82973   0.00000  Uiso   1.00
H131   H     0.73722   0.52654   0.23773   0.00000  Uiso   1.00
C132   C     0.31819   0.83817   1.01004   0.00000  Uiso   1.00
C133   C     0.28499   0.82654   0.89787   0.00000  Uiso   1.00
C134   C     0.22910   0.77921   0.90106   0.00000  Uiso   1.00
C135   C     0.20565   0.74468   1.01370   0.00000  Uiso   1.00
C136   C     0.23639   0.76093   0.12693   0.00000  Uiso   1.00
C137   C     0.29198   0.80726   0.12514   0.00000  Uiso   1.00
O138   O     0.28647   0.84037   0.67189   0.00000  Uiso   1.00
O139   O     0.34290   0.91596   0.78310   0.00000  Uiso   1.00
N140   N     0.30730   0.86140   0.78091   0.00000  Uiso   1.00
H141   H     0.21915   0.73517   0.21536   0.00000  Uiso   1.00
H142   H     0.31612   0.81571   0.21256   0.00000  Uiso   1.00
H143   H     0.20460   0.76783   0.81429   0.00000  Uiso   1.00
C144   C     0.53382   0.79355   0.02897   0.00000  Uiso   1.00
C145   C     0.54362   0.77176  -0.08005   0.00000  Uiso   1.00
C146   C     0.53638   0.71669  -0.07180   0.00000  Uiso   1.00
C147   C     0.51874   0.68271   0.04312   0.00000  Uiso   1.00
C148   C     0.51540   0.70698   0.15367   0.00000  Uiso   1.00
C149   C     0.52300   0.76181   0.14667   0.00000  Uiso   1.00
O150   O     0.60756   0.82221  -0.25131   0.00000  Uiso   1.00
O151   O     0.51673   0.80139   0.72727   0.00000  Uiso   1.00
N152   N     0.55731   0.80304   0.79869   0.00000  Uiso   1.00
H153   H     0.50292   0.68211   0.24418   0.00000  Uiso   1.00
H154   H     0.51594   0.77748   0.23227   0.00000  Uiso   1.00
H155   H     0.54036   0.69903   0.84231   0.00000  Uiso   1.00
C156   C     0.47581   0.30618   1.03582   0.00000  Uiso   1.00
C157   C     0.45434   0.27483   0.92579   0.00000  Uiso   1.00
C158   C     0.45011   0.22103   0.92391   0.00000  Uiso   1.00
C159   C     0.46540   0.19775   1.03048   0.00000  Uiso   1.00
C160   C     0.48043   0.22649   0.14297   0.00000  Uiso   1.00
C161   C     0.48543   0.27999   0.14562   0.00000  Uiso   1.00
O162   O     0.43959   0.28156   0.70298   0.00000  Uiso   1.00
O163   O     0.41464   0.32844   0.82893   0.00000  Uiso   1.00
N164   N     0.43754   0.29712   0.81590   0.00000  Uiso   1.00
H165   H     0.49282   0.20980   0.22629   0.00000  Uiso   1.00
H166   H     0.50186   0.30313   0.23091   0.00000  Uiso   1.00
H167   H     0.43667   0.19813   0.83784   0.00000  Uiso   1.00
loop_
_geom_bond_atom_site_label_1
_geom_bond_atom_site_label_2
_geom_bond_distance
_geom_bond_site_symmetry_2
_ccdc_geom_bond_type
Y0     O10     2.253   .     S
Y0     O13     2.265   .     S
Y0     O14     2.267   .     S
Y0     O12     2.265   1_554 S
Y0     O15     2.267   1_554 S
Y0     O17     2.241   1_554 S
Y1     O8      2.272   .     S
Y1     O16     2.240   .     S
Y1     O19     2.251   .     S
Y1     O9      2.260   1_556 S
Y1     O11     2.244   1_556 S
Y1     O18     2.272   1_556 S
C2     O9      1.258   .     A
C2     C147    1.477   .     S
C2     O8      1.260   1_554 A
C3     O10     1.274   .     A
C3     O11     1.273   .     A
C3     C60     1.485   .     S
C4     O12     1.258   .     A
C4     C123    1.478   .     S
C4     O13     1.258   1_556 A
C5     O15     1.257   .     A
C5     C156    1.480   .     S
C5     O14     1.258   1_556 A
C6     O16     1.270   .     A
C6     O17     1.270   .     A
C6     C63     1.475   .     S
C7     O18     1.260   .     A
C7     C96     1.481   .     S
C7     O19     1.256   1_554 A
O8     C2      1.260   1_556 A
O9     Y1      2.260   1_554 S
O11    Y1      2.244   1_554 S
O12    Y0      2.265   1_556 S
O13    C4      1.258   1_554 A
O14    C5      1.258   1_554 A
O15    Y0      2.267   1_556 S
O17    Y0      2.241   1_556 S
O18    Y1      2.272   1_554 S
O19    C7      1.256   1_556 A
Y20    O30     2.243   .     S
Y20    O33     2.259   .     S
Y20    O34     2.277   .     S
Y20    O32     2.265   1_554 S
Y20    O35     2.254   1_554 S
Y20    O37     2.238   1_554 S
Y21    O28     2.275   .     S
Y21    O36     2.241   .     S
Y21    O39     2.251   .     S
Y21    O29     2.252   1_556 S
Y21    O31     2.237   1_556 S
Y21    O38     2.269   1_556 S
C22    O28     1.261   .     A
C22    C120    1.483   .     S
C22    O29     1.253   1_556 A
C23    O30     1.272   .     A
C23    C75     1.474   .     S
C23    O31     1.272   1_455 A
C24    O32     1.259   .     A
C24    C135    1.476   .     S
C24    O33     1.260   1_556 A
C25    O34     1.261   .     A
C25    C99     1.476   .     S
C25    O35     1.258   1_554 A
C26    O37     1.270   .     A
C26    O36     1.274   1_455 A
C26    C72     1.481   1_455 S
C27    O38     1.261   .     A
C27    C108    1.484   .     S
C27    O39     1.257   1_554 A
O29    Y21     2.252   1_554 S
O29    C22     1.253   1_554 A
O31    Y21     2.237   1_554 S
O31    C23     1.272   1_655 A
O32    Y20     2.265   1_556 S
O33    C24     1.260   1_554 A
O35    Y20     2.254   1_556 S
O35    C25     1.258   1_556 A
O36    C26     1.274   1_655 A
O37    Y20     2.238   1_556 S
O38    Y21     2.269   1_554 S
O39    C27     1.257   1_556 A
Y40    O50     2.243   .     S
Y40    O53     2.257   .     S
Y40    O54     2.275   .     S
Y40    O52     2.267   1_554 S
Y40    O55     2.253   1_554 S
Y40    O57     2.243   1_554 S
Y41    O48     2.268   .     S
Y41    O56     2.240   .     S
Y41    O59     2.265   .     S
Y41    O49     2.264   1_556 S
Y41    O51     2.240   1_556 S
Y41    O58     2.261   1_556 S
C42    O48     1.258   .     A
C42    C132    1.481   .     S
C42    O49     1.257   1_556 A
C43    O50     1.272   .     A
C43    O51     1.270   1_545 A
C43    C84     1.486   1_545 S
C44    O52     1.258   .     A
C44    C159    1.478   .     S
C44    O53     1.257   1_556 A
C45    O54     1.261   .     A
C45    C111    1.478   .     S
C45    O55     1.257   1_554 A
C46    O57     1.273   .     A
C46    C87     1.477   .     S
C46    O56     1.272   1_545 A
C47    O58     1.259   .     A
C47    C144    1.483   .     S
C47    O59     1.258   1_554 A
O49    Y41     2.264   1_554 S
O49    C42     1.257   1_554 A
O51    Y41     2.240   1_554 S
O51    C43     1.270   1_565 A
O52    Y40     2.267   1_556 S
O53    C44     1.257   1_554 A
O55    Y40     2.253   1_556 S
O55    C45     1.257   1_556 A
O56    C46     1.272   1_565 A
O57    Y40     2.243   1_556 S
O58    Y41     2.261   1_554 S
O59    C47     1.258   1_556 A
C60    C61     1.417   .     A
C60    C65     1.406   .     A
C61    C62     1.406   .     A
C61    N68     1.435   .     S
C62    C63     1.400   .     A
C62    H71     1.082   .     S
C63    C64     1.399   .     A
C64    C65     1.398   .     A
C64    H69     1.084   .     S
C65    H70     1.083   .     S
O66    N68     1.302   .     A
O67    N68     1.299   .     A
C72    C73     1.419   .     A
C72    C77     1.407   1_655 A
C72    C26     1.481   1_655 S
C73    C74     1.405   .     A
C73    N80     1.436   .     S
C74    H83     1.084   .     S
C74    C75     1.403   1_655 A
C75    C76     1.400   .     A
C75    C74     1.403   1_455 A
C76    C77     1.394   .     A
C76    H81     1.083   .     S
C77    H82     1.084   .     S
C77    C72     1.407   1_455 A
O78    N80     1.299   .     A
O79    N80     1.301   .     A
C84    C89     1.407   .     A
C84    C85     1.418   1_565 A
C84    C43     1.486   1_565 S
C85    C86     1.402   .     A
C85    N92     1.431   .     S
C85    C84     1.418   1_545 A
C86    C87     1.403   .     A
C86    H95     1.084   .     S
C87    C88     1.402   1_545 A
C88    C89     1.395   .     A
C88    H93     1.085   .     S
C88    C87     1.402   1_565 A
C89    H94     1.085   .     S
O90    N92     1.301   .     A
O91    N92     1.301   .     A
C96    C97     1.421   .     A
C96    C101    1.407   .     A
C97    C98     1.399   1_554 A
C97    N104    1.434   1_554 S
C98    H107    1.085   .     S
C98    C97     1.399   1_556 A
C98    C99     1.403   1_556 A
C99    C100    1.404   .     A
C99    C98     1.403   1_554 A
C100   C101    1.401   .     A
C100   H105    1.084   .     S
C101   H106    1.085   .     S
O102   N104    1.302   .     A
O103   N104    1.305   1_554 A
N104   C97     1.434   1_556 S
N104   O103    1.305   1_556 A
C108   C109    1.419   .     A
C108   C113    1.407   .     A
C109   C110    1.400   .     A
C109   N116    1.437   .     S
C110   C111    1.405   .     A
C110   H119    1.085   .     S
C111   C112    1.401   .     A
C112   C113    1.401   .     A
C112   H117    1.084   .     S
C113   H118    1.084   .     S
O114   N116    1.301   1_556 A
O115   N116    1.303   .     A
N116   O114    1.301   1_554 A
C120   C125    1.406   .     A
C120   C121    1.422   1_556 A
C121   C122    1.405   .     A
C121   N128    1.437   .     S
C121   C120    1.422   1_554 A
C122   H131    1.085   .     S
C122   C123    1.401   1_554 A
C123   C124    1.400   .     A
C123   C122    1.401   1_556 A
C124   C125    1.396   .     A
C124   H129    1.083   .     S
C125   H130    1.084   .     S
O126   N128    1.303   .     A
O127   N128    1.304   .     A
C132   C133    1.419   .     A
C132   C137    1.406   1_556 A
C133   C134    1.409   .     A
C133   N140    1.441   .     S
C134   C135    1.404   .     A
C134   H143    1.083   .     S
C135   C136    1.400   1_556 A
C136   C137    1.394   .     A
C136   H141    1.084   .     S
C136   C135    1.400   1_554 A
C137   H142    1.084   .     S
C137   C132    1.406   1_554 A
O138   N140    1.302   .     A
O139   N140    1.300   .     A
C144   C145    1.418   .     A
C144   C149    1.406   .     A
C145   C146    1.405   .     A
C145   N152    1.429   1_554 S
C146   C147    1.404   .     A
C146   H155    1.086   1_554 S
C147   C148    1.404   .     A
C148   C149    1.395   .     A
C148   H153    1.084   .     S
C149   H154    1.085   .     S
O150   N152    1.302   1_554 A
O151   N152    1.302   .     A
N152   C145    1.429   1_556 S
N152   O150    1.302   1_556 A
H155   C146    1.086   1_556 S
C156   C157    1.417   .     A
C156   C161    1.402   1_556 A
C157   C158    1.410   .     A
C157   N164    1.438   .     S
C158   C159    1.404   .     A
C158   H167    1.083   .     S
C159   C160    1.400   1_556 A
C160   C161    1.394   .     A
C160   H165    1.082   .     S
C160   C159    1.400   1_554 A
C161   H166    1.084   .     S
C161   C156    1.402   1_554 A
O162   N164    1.301   .     A
O163   N164    1.300   .     A
