data_kag+N106+E70
_audit_creation_date              2025-01-21
_audit_creation_method            'Materials Studio'
_symmetry_space_group_name_H-M    'P1'
_symmetry_Int_Tables_number       1
_symmetry_cell_setting            triclinic
loop_
_symmetry_equiv_pos_as_xyz
  x,y,z
_cell_length_a                    23.4053
_cell_length_b                    25.4070
_cell_length_c                    9.4284
_cell_angle_alpha                 92.0961
_cell_angle_beta                  75.0522
_cell_angle_gamma                 130.1628
loop_
_atom_site_label
_atom_site_type_symbol
_atom_site_fract_x
_atom_site_fract_y
_atom_site_fract_z
_atom_site_U_iso_or_equiv
_atom_site_adp_type
_atom_site_occupancy
Y0     Y     0.52177   0.57107  -0.00941   0.00000  Uiso   1.00
Y1     Y     0.44983   0.41453   1.06850   0.00000  Uiso   1.00
O2     O     0.63023   0.58317  -0.06924   0.00000  Uiso   1.00
O3     O     0.52787   0.49706   0.86648   0.00000  Uiso   1.00
C4     C     0.40709   0.29421   1.18177   0.00000  Uiso   1.00
O5     O     0.42298   0.40156   0.84336   0.00000  Uiso   1.00
O6     O     0.58257   0.65711  -0.20329   0.00000  Uiso   1.00
O7     O     0.53294   0.66571   1.00670   0.00000  Uiso   1.00
O8     O     0.57826   0.48071   1.05791   0.00000  Uiso   1.00
O9     O     0.45649   0.49318   0.20501   0.00000  Uiso   1.00
O10    O     0.56525   0.59635   0.18939   0.00000  Uiso   1.00
O11    O     0.39427   0.50334  -0.00027   0.00000  Uiso   1.00
C12    C     0.63770   0.54252   0.98339   0.00000  Uiso   1.00
O13    O     0.34137   0.40119   1.12894   0.00000  Uiso   1.00
C14    C     0.48224   0.45977   0.77754   0.00000  Uiso   1.00
O15    O     0.43456   0.31799   1.04423   0.00000  Uiso   1.00
O16    O     0.39926   0.33144   0.26099   0.00000  Uiso   1.00
C17    C     0.56891   0.69221  -0.12957   0.00000  Uiso   1.00
C18    C     0.33488   0.44234   0.07631   0.00000  Uiso   1.00
C19    C     0.51718   0.53824   0.26436   0.00000  Uiso   1.00
Y20    Y     0.92568   0.50052   0.02198   0.00000  Uiso   1.00
Y21    Y     0.05811   0.49016   0.99202   0.00000  Uiso   1.00
O22    O     0.03435   0.61116   0.00578   0.00000  Uiso   1.00
O23    O     1.03038   0.53027   0.83222   0.00000  Uiso   1.00
C24    C     0.13405   0.45545   1.07155   0.00000  Uiso   1.00
O25    O     0.05587   0.46466   0.76188   0.00000  Uiso   1.00
O26    O     0.81787   0.49050   0.07823   0.00000  Uiso   1.00
O27    O     0.90691   0.55166   0.87480   0.00000  Uiso   1.00
O28    O     0.11766   0.59994   1.04251   0.00000  Uiso   1.00
O29    O    -0.05593   0.44742   0.16257   0.00000  Uiso   1.00
O30    O     0.93262   0.51752   0.26333   0.00000  Uiso   1.00
O31    O     0.86467   0.39073  -0.03165   0.00000  Uiso   1.00
C32    C     0.09780   0.63611   1.03216   0.00000  Uiso   1.00
O33    O     0.94728   0.37896   1.00861   0.00000  Uiso   1.00
C34    C     0.02815   0.48822   0.73125   0.00000  Uiso   1.00
O35    O     0.16256   0.49610   0.95131   0.00000  Uiso   1.00
O36    O     0.06966   0.43670   0.15137   0.00000  Uiso   1.00
C37    C     0.84297   0.53147  -0.03845   0.00000  Uiso   1.00
C38    C     0.88426   0.35423  -0.02114   0.00000  Uiso   1.00
C39    C    -0.05479   0.47928   0.28259   0.00000  Uiso   1.00
Y40    Y     0.46521   0.04054   1.04788   0.00000  Uiso   1.00
Y41    Y     0.51719   0.95109  -0.03372   0.00000  Uiso   1.00
O42    O     0.35044   0.92954   1.10033   0.00000  Uiso   1.00
O43    O     0.45532  -0.03876   0.17518   0.00000  Uiso   1.00
C44    C     0.55881   0.87741  -0.14424   0.00000  Uiso   1.00
O45    O     0.55825   0.98025   0.17451   0.00000  Uiso   1.00
O46    O     0.45959   0.12553   1.03688   0.00000  Uiso   1.00
O47    O     0.40685   0.06102   0.24410   0.00000  Uiso   1.00
O48    O     0.38886   0.87497  -0.02531   0.00000  Uiso   1.00
O49    O     0.52772   1.03218   0.83494   0.00000  Uiso   1.00
O50    O     0.42508   0.01678   0.84514   0.00000  Uiso   1.00
O51    O     0.59706   0.11893   1.01616   0.00000  Uiso   1.00
C52    C     0.33512   0.87639   0.04469   0.00000  Uiso   1.00
O53    O     0.63369   0.06103  -0.09666   0.00000  Uiso   1.00
C54    C     0.51081  -0.01497   0.24327   0.00000  Uiso   1.00
O55    O     0.51990   0.86494  -0.01007   0.00000  Uiso   1.00
O56    O     0.57476   0.92703   0.77776   0.00000  Uiso   1.00
C57    C     0.42168   0.11135   1.17241   0.00000  Uiso   1.00
C58    C     0.65005   0.11597   0.95040   0.00000  Uiso   1.00
C59    C     0.47543   1.01778   0.76499   0.00000  Uiso   1.00
N60    N     0.47832   0.48176   0.52396   0.00000  Uiso   1.00
H61    H     0.65774   0.58675   0.28400   0.00000  Uiso   1.00
C62    C     0.53171   0.52077   0.38980   0.00000  Uiso   1.00
C63    C     0.60740   0.55227   0.38174   0.00000  Uiso   1.00
C64    C     0.51588   0.48483   0.61608   0.00000  Uiso   1.00
S65    S     0.61558   0.53536   0.54278   0.00000  Uiso   1.00
N66    N    -0.01352   0.49908   0.51690   0.00000  Uiso   1.00
H67    H     0.95028   0.35905   0.65413   0.00000  Uiso   1.00
C68    C     0.98807   0.46247   0.61442   0.00000  Uiso   1.00
C69    C     0.95259   0.39523   0.59051   0.00000  Uiso   1.00
C70    C     0.94869   0.45733   0.42093   0.00000  Uiso   1.00
S71    S     0.91440   0.37400   0.44841   0.00000  Uiso   1.00
N72    N     0.49842   0.99241   0.51059   0.00000  Uiso   1.00
H73    H     0.53786   0.10844   0.26355   0.00000  Uiso   1.00
C74    C     0.51651   0.02041   0.37139   0.00000  Uiso   1.00
C75    C     0.52640   0.07992   0.36313   0.00000  Uiso   1.00
C76    C     0.49500   0.03214   0.60498   0.00000  Uiso   1.00
S77    S     0.51344   0.10359   0.52945   0.00000  Uiso   1.00
N78    N     0.24300   0.45715   1.05156   0.00000  Uiso   1.00
H79    H     0.19178   0.32883   0.28179   0.00000  Uiso   1.00
C80    C     0.25648   0.42026   0.11162   0.00000  Uiso   1.00
C81    C     0.19167   0.36365   0.21932   0.00000  Uiso   1.00
C82    C     0.16786   0.42833   0.11448   0.00000  Uiso   1.00
S83    S     0.11133   0.35551   0.24969   0.00000  Uiso   1.00
N84    N     0.75878   0.23896   0.96752   0.00000  Uiso   1.00
H85    H     0.92978   0.27821  -0.11729   0.00000  Uiso   1.00
C86    C     0.83613   0.28171  -0.04904   0.00000  Uiso   1.00
C87    C     0.86843   0.25166  -0.09724   0.00000  Uiso   1.00
C88    C     0.73319   0.17658  -0.06892   0.00000  Uiso   1.00
S89    S     0.80281   0.16873  -0.12586   0.00000  Uiso   1.00
N90    N     0.73148   0.52828  -0.00252   0.00000  Uiso   1.00
H91    H     0.90822   0.64684   0.75779   0.00000  Uiso   1.00
C92    C     0.80617   0.55750   0.92871   0.00000  Uiso   1.00
C93    C     0.84725   0.61613   0.82312   0.00000  Uiso   1.00
C94    C     0.71652   0.56550   0.94350   0.00000  Uiso   1.00
S95    S     0.79314   0.63706   0.80753   0.00000  Uiso   1.00
N96    N     0.22476   0.75220   0.03353   0.00000  Uiso   1.00
H97    H     0.20530   0.86715   1.13451   0.00000  Uiso   1.00
C98    C     0.25196   0.81584   1.06184   0.00000  Uiso   1.00
C99    C     0.19451   0.82027   1.10736   0.00000  Uiso   1.00
C100   C     0.14647   0.70907   1.05645   0.00000  Uiso   1.00
S101   S     0.10420   0.74496   1.11261   0.00000  Uiso   1.00
N102   N     0.55949   0.78248   0.88197   0.00000  Uiso   1.00
H103   H     0.65708   0.89805  -0.42662   0.00000  Uiso   1.00
C104   C     0.58325   0.83833  -0.20196   0.00000  Uiso   1.00
C105   C     0.63195   0.85450  -0.34349   0.00000  Uiso   1.00
C106   C     0.58961   0.75571  -0.19500   0.00000  Uiso   1.00
S107   S     0.64876   0.79821  -0.37427   0.00000  Uiso   1.00
N108   N     0.41564   0.20331   1.15694   0.00000  Uiso   1.00
H109   H     0.33012   0.21694   0.47517   0.00000  Uiso   1.00
C110   C     0.39026   0.23182   0.24213   0.00000  Uiso   1.00
C111   C     0.35320   0.20014   0.38984   0.00000  Uiso   1.00
C112   C     0.39793   0.14980   0.23903   0.00000  Uiso   1.00
S113   S     0.34894   0.13200   0.42486   0.00000  Uiso   1.00
loop_
_geom_bond_atom_site_label_1
_geom_bond_atom_site_label_2
_geom_bond_distance
_geom_bond_site_symmetry_2
_ccdc_geom_bond_type
Y0     O2      2.264   .     S
Y0     O6      2.255   .     S
Y0     O9      2.266   .     S
Y0     O10     2.239   .     S
Y0     O11     2.265   .     S
Y0     O3      2.242   1_554 S
Y0     O7      2.249   1_554 S
Y1     O3      2.218   .     S
Y1     O5      2.319   .     S
Y1     O8      2.283   .     S
Y1     O13     2.245   .     S
Y1     O15     2.251   .     S
Y1     O9      2.278   1_556 S
Y1     O16     2.258   1_556 S
O2     C12     1.288   1_554 A
O3     C14     1.357   .     S
O3     Y0      2.242   1_556 S
C4     O15     1.259   .     A
C4     O16     1.260   1_556 A
C4     C110    1.462   1_556 S
O5     C14     1.214   .     D
O6     C17     1.260   .     A
O7     Y0      2.249   1_556 S
O7     C17     1.260   1_556 A
O8     C12     1.286   .     A
O9     C19     1.381   .     S
O9     Y1      2.278   1_554 S
O10    C19     1.212   .     D
O11    C18     1.281   .     A
C12    C94     1.468   .     S
C12    O2      1.288   1_556 A
O13    C18     1.282   1_556 A
C14    C64     1.466   .     S
O16    Y1      2.258   1_554 S
O16    C4      1.260   1_554 A
C17    C106    1.459   .     S
C17    O7      1.260   1_554 A
C18    C80     1.471   .     S
C18    O13     1.282   1_554 A
C19    C62     1.467   .     S
Y20    O26     2.281   .     S
Y20    O30     2.328   .     S
Y20    O31     2.282   .     S
Y20    O22     2.237   1_655 S
Y20    O23     2.286   1_554 S
Y20    O27     2.234   1_554 S
Y20    O29     2.222   1_655 S
Y21    O25     2.246   .     S
Y21    O28     2.276   .     S
Y21    O35     2.278   .     S
Y21    O23     2.280   1_455 S
Y21    O29     2.250   1_556 S
Y21    O33     2.259   1_455 S
Y21    O36     2.238   1_556 S
O22    Y20     2.237   1_455 S
O22    C32     1.278   1_554 A
O23    Y20     2.286   1_556 S
O23    Y21     2.280   1_655 S
O23    C34     1.389   1_655 S
C24    O35     1.266   .     A
C24    O36     1.257   1_556 A
C24    C82     1.468   1_556 S
O25    C34     1.214   .     D
O26    C37     1.265   .     A
O27    Y20     2.234   1_556 S
O27    C37     1.257   1_556 A
O28    C32     1.285   .     A
O29    C39     1.363   .     S
O29    Y20     2.222   1_455 S
O29    Y21     2.250   1_554 S
O30    C39     1.214   1_655 D
O31    C38     1.288   .     A
C32    C100    1.472   .     S
C32    O22     1.278   1_556 A
O33    Y21     2.259   1_655 S
O33    C38     1.286   1_556 A
C34    O23     1.389   1_455 S
C34    C68     1.487   1_455 S
O36    Y21     2.238   1_554 S
O36    C24     1.257   1_554 A
C37    O27     1.257   1_554 A
C37    C92     1.471   1_554 S
C38    C86     1.474   .     S
C38    O33     1.286   1_554 A
C39    O30     1.214   1_455 D
C39    C70     1.478   1_455 S
Y40    O46     2.254   .     S
Y40    O50     2.238   .     S
Y40    O51     2.284   .     S
Y40    O42     2.249   1_545 S
Y40    O43     2.233   1_556 S
Y40    O47     2.259   1_556 S
Y40    O49     2.252   1_545 S
Y41    O45     2.297   .     S
Y41    O48     2.272   .     S
Y41    O55     2.251   .     S
Y41    O43     2.240   1_565 S
Y41    O49     2.283   1_554 S
Y41    O53     2.248   1_565 S
Y41    O56     2.257   1_554 S
O42    Y40     2.249   1_565 S
O42    C52     1.284   1_556 A
O43    C54     1.361   .     S
O43    Y40     2.233   1_554 S
O43    Y41     2.240   1_545 S
C44    O55     1.262   .     A
C44    C104    1.463   .     S
C44    O56     1.261   1_554 A
O45    C54     1.210   1_565 D
O46    C57     1.260   .     A
O47    Y40     2.259   1_554 S
O47    C57     1.258   1_554 A
O48    C52     1.284   .     A
O49    C59     1.374   .     S
O49    Y40     2.252   1_565 S
O49    Y41     2.283   1_556 S
O50    C59     1.210   1_545 D
O51    C58     1.284   .     A
C52    O42     1.284   1_554 A
C52    C98     1.475   1_554 S
O53    Y41     2.248   1_545 S
O53    C58     1.282   1_554 A
C54    C74     1.461   .     S
C54    O45     1.210   1_545 D
O56    Y41     2.257   1_556 S
O56    C44     1.261   1_556 A
C57    O47     1.258   1_556 A
C57    C112    1.461   1_556 S
C58    O53     1.282   1_556 A
C58    C88     1.471   1_556 S
C59    O50     1.210   1_565 D
C59    C76     1.445   1_565 S
N60    C62     1.350   .     A
N60    C64     1.354   .     A
H61    C63     1.083   .     S
C62    C63     1.375   .     A
C63    S65     1.682   .     A
C64    S65     1.715   .     A
N66    C68     1.355   1_455 A
N66    C70     1.363   1_455 A
H67    C69     1.080   .     S
C68    C69     1.377   .     A
C68    N66     1.355   1_655 A
C68    C34     1.487   1_655 S
C69    S71     1.682   .     A
C70    S71     1.713   .     A
C70    N66     1.363   1_655 A
C70    C39     1.478   1_655 S
N72    C74     1.342   1_565 A
N72    C76     1.349   1_565 A
H73    C75     1.071   .     S
C74    C75     1.376   .     A
C74    N72     1.342   1_545 A
C75    S77     1.683   .     A
C76    S77     1.707   .     A
C76    N72     1.349   1_545 A
C76    C59     1.445   1_545 S
N78    C80     1.346   1_556 A
N78    C82     1.347   1_556 A
H79    C81     1.082   .     S
C80    C81     1.378   .     A
C80    N78     1.346   1_554 A
C81    S83     1.699   .     A
C82    S83     1.716   .     A
C82    N78     1.347   1_554 A
C82    C24     1.468   1_554 S
N84    C86     1.346   1_556 A
N84    C88     1.353   1_556 A
H85    C87     1.083   .     S
C86    C87     1.379   .     A
C86    N84     1.346   1_554 A
C87    S89     1.694   .     A
C88    S89     1.716   .     A
C88    N84     1.353   1_554 A
C88    C58     1.471   1_554 S
N90    C92     1.343   1_554 A
N90    C94     1.353   1_554 A
H91    C93     1.082   .     S
C92    C93     1.379   .     A
C92    N90     1.343   1_556 A
C92    C37     1.471   1_556 S
C93    S95     1.697   .     A
C94    S95     1.716   .     A
C94    N90     1.353   1_556 A
N96    C98     1.349   1_554 A
N96    C100    1.352   1_554 A
H97    C99     1.082   .     S
C98    C99     1.378   .     A
C98    N96     1.349   1_556 A
C98    C52     1.475   1_556 S
C99    S101    1.693   .     A
C100   S101    1.717   .     A
C100   N96     1.352   1_556 A
N102   C104    1.337   1_556 A
N102   C106    1.343   1_556 A
H103   C105    1.082   .     S
C104   C105    1.378   .     A
C104   N102    1.337   1_554 A
C105   S107    1.709   .     A
C106   S107    1.714   .     A
C106   N102    1.343   1_554 A
N108   C110    1.338   1_556 A
N108   C112    1.343   1_556 A
H109   C111    1.081   .     S
C110   C111    1.378   .     A
C110   N108    1.338   1_554 A
C110   C4      1.462   1_554 S
C111   S113    1.708   .     A
C112   S113    1.715   .     A
C112   N108    1.343   1_554 A
C112   C57     1.461   1_554 S
