data_kag+N505+E35
_audit_creation_date              2025-01-21
_audit_creation_method            'Materials Studio'
_symmetry_space_group_name_H-M    'P1'
_symmetry_Int_Tables_number       1
_symmetry_cell_setting            triclinic
loop_
_symmetry_equiv_pos_as_xyz
  x,y,z
_cell_length_a                    31.8562
_cell_length_b                    26.8682
_cell_length_c                    17.1628
_cell_angle_alpha                 84.6816
_cell_angle_beta                  87.0415
_cell_angle_gamma                 105.6817
loop_
_atom_site_label
_atom_site_type_symbol
_atom_site_fract_x
_atom_site_fract_y
_atom_site_fract_z
_atom_site_U_iso_or_equiv
_atom_site_adp_type
_atom_site_occupancy
Yb0    Yb    0.56411   0.50965   0.91472   0.00000  Uiso   1.00
Yb1    Yb    0.44140   0.49423   0.08969   0.00000  Uiso   1.00
C2     C     0.37216   0.50925   0.05031   0.00000  Uiso   1.00
O3     O     0.51893   0.47364   0.83932   0.00000  Uiso   1.00
O4     O     0.58218   0.52846   0.79392   0.00000  Uiso   1.00
O5     O     0.53610   0.57452  -0.08450   0.00000  Uiso   1.00
O6     O     0.47564   0.52467   0.97682   0.00000  Uiso   1.00
O7     O     0.60779   0.46289   0.92318   0.00000  Uiso   1.00
O8     O     0.62262   0.54042  -0.03564   0.00000  Uiso   1.00
O9     O     0.48524   0.52569   0.17123   0.00000  Uiso   1.00
O10    O     0.42003   0.47247   0.20824   0.00000  Uiso   1.00
C11    C     0.54474   0.49864   0.77952   0.00000  Uiso   1.00
O12    O     0.53096   0.47872   0.02863   0.00000  Uiso   1.00
O13    O     0.46873   0.42915   1.08624   0.00000  Uiso   1.00
O14    O     0.40029   0.54383   0.08276   0.00000  Uiso   1.00
C15    C     0.50036   0.57009  -0.04445   0.00000  Uiso   1.00
O16    O     0.38293   0.46763   1.03723   0.00000  Uiso   1.00
C17    C     0.63497   0.49945   0.95399   0.00000  Uiso   1.00
C18    C     0.45711   0.49996   0.22777   0.00000  Uiso   1.00
C19    C     0.50443   0.43366   0.04565   0.00000  Uiso   1.00
Yb20   Yb    0.04408   0.56895   0.90072   0.00000  Uiso   1.00
Yb21   Yb    0.96317   0.43849   0.08318   0.00000  Uiso   1.00
C22    C     0.89465   0.37598   0.05654   0.00000  Uiso   1.00
O23    O     0.03151   0.50924   0.82725   0.00000  Uiso   1.00
O24    O     1.04547   0.59142   0.77969   0.00000  Uiso   1.00
O25    O     0.97469   0.56148   0.91590   0.00000  Uiso   1.00
O26    O     0.96762   0.48281   0.97014   0.00000  Uiso   1.00
O27    O     0.11256   0.59181   0.89362   0.00000  Uiso   1.00
O28    O     0.07387   0.63978  -0.05719   0.00000  Uiso   1.00
O29    O     0.97586   0.49335   0.16543   0.00000  Uiso   1.00
O30    O    -0.03765   0.40947   0.20089   0.00000  Uiso   1.00
C31    C     1.03557   0.54312   0.76681   0.00000  Uiso   1.00
O32    O     0.03963   0.52834   0.01725   0.00000  Uiso   1.00
O33    O     0.03280   0.44803   0.06598   0.00000  Uiso   1.00
O34    O     0.89484   0.41625   0.09213   0.00000  Uiso   1.00
C35    C     0.95037   0.51930   0.95226   0.00000  Uiso   1.00
O36    O     0.93234   0.36987   1.03532   0.00000  Uiso   1.00
C37    C     0.11188   0.63319   0.92586   0.00000  Uiso   1.00
C38    C    -0.02776   0.45610   0.22094   0.00000  Uiso   1.00
C39    C     0.05715   0.49195   0.03486   0.00000  Uiso   1.00
Yb40   Yb    0.44200   0.96083   0.09846   0.00000  Uiso   1.00
Yb41   Yb    0.55915   0.04390   0.91663   0.00000  Uiso   1.00
C42    C     0.62187   0.11313   0.94810   0.00000  Uiso   1.00
O43    O     0.49100   0.96444   0.17654   0.00000  Uiso   1.00
O44    O     0.42385  -0.03786   0.21757   0.00000  Uiso   1.00
O45    O     0.45969   0.04494   0.07897   0.00000  Uiso   1.00
O46    O     0.52290   0.04355   0.02604   0.00000  Uiso   1.00
O47    O     0.41006   0.88078   0.10741   0.00000  Uiso   1.00
O48    O     0.38111   0.93970   1.05241   0.00000  Uiso   1.00
O49    O     0.51428   0.04084   0.82990   0.00000  Uiso   1.00
O50    O     0.58274   1.04234   0.80121   0.00000  Uiso   1.00
C51    C     0.46360  -0.03440   0.23412   0.00000  Uiso   1.00
O52    O     0.47492   0.96043   0.98495   0.00000  Uiso   1.00
O53    O     0.53968   0.96003   0.93558   0.00000  Uiso   1.00
O54    O     0.59097   0.12363   0.90948   0.00000  Uiso   1.00
C55    C     0.49568   0.06903   0.04012   0.00000  Uiso   1.00
O56    O     0.61788   0.06470  -0.02971   0.00000  Uiso   1.00
C57    C     0.37788   0.89124   0.07260   0.00000  Uiso   1.00
C58    C     0.54437   1.03901   0.77752   0.00000  Uiso   1.00
C59    C     0.50258   0.93537   0.97045   0.00000  Uiso   1.00
C60    C     0.48843   0.49525   0.46669   0.00000  Uiso   1.00
C61    C     0.44550   0.47171   0.44861   0.00000  Uiso   1.00
C62    C     0.43514   0.47407   0.37069   0.00000  Uiso   1.00
C63    C     0.46710   0.50032   0.31066   0.00000  Uiso   1.00
C64    C     0.50915   0.52474   0.33111   0.00000  Uiso   1.00
N65    N     0.51862   0.52146   0.40739   0.00000  Uiso   1.00
C66    C     0.50214   0.49332   0.54796   0.00000  Uiso   1.00
N67    N     0.54136   0.52554   0.56223   0.00000  Uiso   1.00
C68    C     0.55631   0.52689   0.63498   0.00000  Uiso   1.00
C69    C     0.53105   0.49462   0.69906   0.00000  Uiso   1.00
C70    C     0.49103   0.46024   0.68571   0.00000  Uiso   1.00
C71    C     0.47657   0.45918   0.61046   0.00000  Uiso   1.00
H72    H     0.40214   0.45502   0.35748   0.00000  Uiso   1.00
H73    H     0.53468   0.54559   0.28653   0.00000  Uiso   1.00
H74    H     0.58743   0.55394   0.64281   0.00000  Uiso   1.00
H75    H     0.47070   0.43437   0.73359   0.00000  Uiso   1.00
H76    H     0.41985   0.45180   0.49329   0.00000  Uiso   1.00
H77    H     0.44589   0.43160   0.60232   0.00000  Uiso   1.00
C78    C     1.00917   0.49788   0.53768   0.00000  Uiso   1.00
C79    C     0.00304   0.45962   0.60231   0.00000  Uiso   1.00
C80    C     0.01264   0.47446   0.67663   0.00000  Uiso   1.00
C81    C     1.02792   0.52718   0.68740   0.00000  Uiso   1.00
C82    C     1.03380   0.56423   0.62168   0.00000  Uiso   1.00
N83    N     1.02433   0.54886   0.54973   0.00000  Uiso   1.00
C84    C    -0.00118   0.48504   0.45704   0.00000  Uiso   1.00
N85    N     0.99806   0.52431   0.40123   0.00000  Uiso   1.00
C86    C     0.98912   0.51616   0.32599   0.00000  Uiso   1.00
C87    C    -0.01980   0.46587   0.30298   0.00000  Uiso   1.00
C88    C    -0.01922   0.42481   0.35922   0.00000  Uiso   1.00
C89    C    -0.00975   0.43412   0.43584   0.00000  Uiso   1.00
H90    H     0.00732   0.44464   0.72594   0.00000  Uiso   1.00
H91    H     1.04554   0.60535   0.62740   0.00000  Uiso   1.00
H92    H     0.98923   0.54899   0.28429   0.00000  Uiso   1.00
H93    H    -0.02544   0.38544   0.34373   0.00000  Uiso   1.00
H94    H    -0.00982   0.41869   0.59704   0.00000  Uiso   1.00
H95    H    -0.00859   0.40156   0.47665   0.00000  Uiso   1.00
C96    C     0.50445  -0.00505   0.46307   0.00000  Uiso   1.00
C97    C     0.53543   0.99401   0.40205   0.00000  Uiso   1.00
C98    C     0.52180  -0.01729   0.32818   0.00000  Uiso   1.00
C99    C     0.47754  -0.02719   0.31409   0.00000  Uiso   1.00
C100   C     0.44748  -0.02657   0.37647   0.00000  Uiso   1.00
N101   N     0.46150  -0.01558   0.44808   0.00000  Uiso   1.00
C102   C     0.51670   1.00802   0.54274   0.00000  Uiso   1.00
N103   N     0.48553   0.01514   0.59473   0.00000  Uiso   1.00
C104   C     0.49368   0.02642   0.66912   0.00000  Uiso   1.00
C105   C     0.53539   1.03102   0.69532   0.00000  Uiso   1.00
C106   C     0.56811   1.02435   0.64284   0.00000  Uiso   1.00
C107   C     0.55898   1.01267   0.56703   0.00000  Uiso   1.00
H108   H     0.54610   0.98297   0.28151   0.00000  Uiso   1.00
H109   H     0.41298  -0.03399   0.36813   0.00000  Uiso   1.00
H110   H     0.46744   0.03101   0.70792   0.00000  Uiso   1.00
H111   H     0.60067   1.02705   0.66087   0.00000  Uiso   1.00
H112   H     0.56998   1.00291   0.40952   0.00000  Uiso   1.00
H113   H     0.58490   1.00650   0.52950   0.00000  Uiso   1.00
C114   C     0.24255   0.51884   0.01816   0.00000  Uiso   1.00
C115   C     0.27430   0.56307   0.03657   0.00000  Uiso   1.00
C116   C     0.31726   0.56088   0.04434   0.00000  Uiso   1.00
C117   C     0.32883   0.51523   0.03254   0.00000  Uiso   1.00
C118   C     0.29701   0.47332   0.00907   0.00000  Uiso   1.00
N119   N     0.25530   0.47595   0.00350   0.00000  Uiso   1.00
C120   C     0.19525   0.51559   0.01798   0.00000  Uiso   1.00
N121   N     0.16792   0.47340  -0.00899   0.00000  Uiso   1.00
C122   C     0.12380   0.46537  -0.00631   0.00000  Uiso   1.00
C123   C     0.10482   0.50133   0.02447   0.00000  Uiso   1.00
C124   C     0.13202   0.54483   0.05297   0.00000  Uiso   1.00
C125   C     0.17708   0.55201   0.05040   0.00000  Uiso   1.00
H126   H     0.34111   0.59441   0.06118   0.00000  Uiso   1.00
H127   H     0.30475   0.43762  -0.00176   0.00000  Uiso   1.00
H128   H     0.10363   0.43083  -0.02754   0.00000  Uiso   1.00
H129   H     0.11818   0.57255   0.07938   0.00000  Uiso   1.00
H130   H     0.26647   0.59881   0.04614   0.00000  Uiso   1.00
H131   H     0.19676   0.58509   0.07544   0.00000  Uiso   1.00
C132   C     0.77505   0.26957   0.00999   0.00000  Uiso   1.00
C133   C     0.77419   0.31621   0.03972   0.00000  Uiso   1.00
C134   C     0.81330   0.35076   0.05544   0.00000  Uiso   1.00
C135   C     0.85322   0.33934   0.04052   0.00000  Uiso   1.00
C136   C     0.85269   0.29241   0.01061   0.00000  Uiso   1.00
N137   N     0.81409   0.25893  -0.00304   0.00000  Uiso   1.00
C138   C     0.73458   0.23074   0.99498   0.00000  Uiso   1.00
N139   N     0.73337   0.17953   1.00419   0.00000  Uiso   1.00
C140   C     0.69750   0.14147   0.99089   0.00000  Uiso   1.00
C141   C     0.66022   0.15423   0.96531   0.00000  Uiso   1.00
C142   C     0.66075   0.20678   0.95481   0.00000  Uiso   1.00
C143   C     0.69781   0.24518   0.96996   0.00000  Uiso   1.00
H144   H     0.81227   0.38637   0.07927   0.00000  Uiso   1.00
H145   H     0.88277   0.28206  -0.00123   0.00000  Uiso   1.00
H146   H     0.69844   0.10137   0.99918   0.00000  Uiso   1.00
H147   H     0.63264   0.21813   0.93481   0.00000  Uiso   1.00
H148   H     0.74368   0.32537   0.05259   0.00000  Uiso   1.00
H149   H     0.69796   0.28561   0.96045   0.00000  Uiso   1.00
C150   C     0.81420   0.50503   0.99062   0.00000  Uiso   1.00
C151   C     0.84493   0.54713   1.01734   0.00000  Uiso   1.00
C152   C     0.88956   0.55123   1.00667   0.00000  Uiso   1.00
C153   C     0.90365   0.51321   0.97119   0.00000  Uiso   1.00
C154   C     0.87233   0.47160   0.94626   0.00000  Uiso   1.00
N155   N     0.82911   0.46877   0.95600   0.00000  Uiso   1.00
C156   C     0.76656   0.50072   0.99217   0.00000  Uiso   1.00
N157   N     0.74052   0.46298   0.95426   0.00000  Uiso   1.00
C158   C     0.69761   0.45949   0.94551   0.00000  Uiso   1.00
C159   C     0.67885   0.49648   0.97387   0.00000  Uiso   1.00
C160   C     0.70430   0.53412   1.01632   0.00000  Uiso   1.00
C161   C     0.74783   0.53612   1.02634   0.00000  Uiso   1.00
H162   H     0.91311   0.58436   1.02528   0.00000  Uiso   1.00
H163   H     0.88230   0.44226   0.91673   0.00000  Uiso   1.00
H164   H     0.67889   0.42943   0.91322   0.00000  Uiso   1.00
H165   H     0.69086   0.56301   1.04015   0.00000  Uiso   1.00
H166   H     0.83550   0.57770   1.04398   0.00000  Uiso   1.00
H167   H     0.76621   0.56606   1.05884   0.00000  Uiso   1.00
C168   C     0.26704   0.77505   0.01452   0.00000  Uiso   1.00
C169   C     0.30328   0.76003   0.04108   0.00000  Uiso   1.00
C170   C     0.33935   0.79775   0.06182   0.00000  Uiso   1.00
C171   C     0.33943   0.85019   0.05527   0.00000  Uiso   1.00
C172   C     0.30229   0.86333   0.02981   0.00000  Uiso   1.00
N173   N     0.26750   0.82597   0.01070   0.00000  Uiso   1.00
C174   C     0.22802   0.73737   0.99116   0.00000  Uiso   1.00
N175   N     0.18853   0.74750   1.00012   0.00000  Uiso   1.00
C176   C     0.15121   0.71526   0.97877   0.00000  Uiso   1.00
C177   C     0.15248   0.67006   0.94510   0.00000  Uiso   1.00
C178   C     0.19302   0.65956   0.93327   0.00000  Uiso   1.00
C179   C     0.23080   0.69281   0.95688   0.00000  Uiso   1.00
H180   H     0.36725   0.78605   0.08203   0.00000  Uiso   1.00
H181   H     0.30087   0.90327   0.02478   0.00000  Uiso   1.00
H182   H     0.12065   0.72495   0.98839   0.00000  Uiso   1.00
H183   H     0.19542   0.62523   0.90693   0.00000  Uiso   1.00
H184   H     0.30358   0.71968   1.04682   0.00000  Uiso   1.00
H185   H     0.26178   0.68417   0.94705   0.00000  Uiso   1.00
C186   C     0.48221   0.77147   1.00309   0.00000  Uiso   1.00
C187   C     0.44802   0.79170   0.97851   0.00000  Uiso   1.00
C188   C     0.45367   0.84542   0.97230   0.00000  Uiso   1.00
C189   C     0.49281   0.87886   0.99135   0.00000  Uiso   1.00
C190   C     0.52541   0.85722   1.01832   0.00000  Uiso   1.00
N191   N     0.51945   0.80502   1.02300   0.00000  Uiso   1.00
C192   C     0.48181   0.71611   1.00070   0.00000  Uiso   1.00
N193   N     0.51898   0.70284   1.01742   0.00000  Uiso   1.00
C194   C     0.52422   0.65518   1.00840   0.00000  Uiso   1.00
C195   C     0.49099   0.61734   0.97986   0.00000  Uiso   1.00
C196   C     0.45182   0.62904   0.96424   0.00000  Uiso   1.00
C197   C     0.44685   0.67819   0.97519   0.00000  Uiso   1.00
H198   H     0.42838   0.86107   0.94880   0.00000  Uiso   1.00
H199   H     0.55629   0.88195   1.03272   0.00000  Uiso   1.00
H200   H     0.55502   0.64751   1.02074   0.00000  Uiso   1.00
H201   H     0.42598   0.60114  -0.06002   0.00000  Uiso   1.00
H202   H     0.41793   0.76732  -0.03895   0.00000  Uiso   1.00
H203   H     0.41664   0.68631  -0.03929   0.00000  Uiso   1.00
C204   C     0.51193   0.28661  -0.01548   0.00000  Uiso   1.00
C205   C     0.47635   0.30542  -0.03601   0.00000  Uiso   1.00
C206   C     0.47580   0.35527  -0.02101   0.00000  Uiso   1.00
C207   C     0.51064   0.38713   0.01314   0.00000  Uiso   1.00
C208   C     0.54696   0.36880   0.02790   0.00000  Uiso   1.00
N209   N     0.54638   0.31937   0.01460   0.00000  Uiso   1.00
C210   C     0.51063   0.23066  -0.01555   0.00000  Uiso   1.00
N211   N     0.54184   0.21319   0.02086   0.00000  Uiso   1.00
C212   C     0.53968   0.16173   0.03359   0.00000  Uiso   1.00
C213   C     0.50378   0.12429   0.01124   0.00000  Uiso   1.00
C214   C     0.47215   0.14103  -0.02882   0.00000  Uiso   1.00
C215   C     0.47578   0.19399  -0.04374   0.00000  Uiso   1.00
H216   H     0.44707   0.36815  -0.03260   0.00000  Uiso   1.00
H217   H     0.57428   0.39219   0.05514   0.00000  Uiso   1.00
H218   H     0.56450   0.14996   0.06544   0.00000  Uiso   1.00
H219   H     0.44394   0.11300  -0.04664   0.00000  Uiso   1.00
H220   H     0.44780   0.28167  -0.05908   0.00000  Uiso   1.00
H221   H     0.45042   0.20497  -0.07450   0.00000  Uiso   1.00
loop_
_geom_bond_atom_site_label_1
_geom_bond_atom_site_label_2
_geom_bond_distance
_geom_bond_site_symmetry_2
_ccdc_geom_bond_type
Yb0    O3      2.087   .     S
Yb0    O4      2.100   .     S
Yb0    O7      2.114   .     S
Yb0    O5      2.163   1_556 S
Yb0    O8      2.084   1_556 S
Yb0    O12     2.154   1_556 S
Yb1    O9      2.099   .     S
Yb1    O10     2.089   .     S
Yb1    O14     2.106   .     S
Yb1    O6      2.149   1_554 S
Yb1    O13     2.158   1_554 S
Yb1    O16     2.089   1_554 S
C2     O14     1.294   .     A
C2     C117    1.476   .     S
C2     O16     1.290   1_554 A
O3     C11     1.291   .     A
O4     C11     1.295   .     A
O5     C15     1.270   .     A
O5     Yb0     2.163   1_554 S
O6     Yb1     2.149   1_556 S
O6     C15     1.269   1_556 A
O7     C17     1.295   .     A
O8     Yb0     2.084   1_554 S
O8     C17     1.289   1_554 A
O9     C18     1.294   .     A
O10    C18     1.291   .     A
C11    C69     1.474   .     S
O12    C19     1.273   .     A
O12    Yb0     2.154   1_554 S
O13    Yb1     2.158   1_556 S
O13    C19     1.273   1_556 A
C15    O6      1.269   1_554 A
C15    C195    1.471   1_554 S
O16    Yb1     2.089   1_556 S
O16    C2      1.290   1_556 A
C17    C159    1.477   .     S
C17    O8      1.289   1_556 A
C18    C63     1.474   .     S
C19    C207    1.471   .     S
C19    O13     1.273   1_554 A
Yb20   O23     2.099   .     S
Yb20   O27     2.094   .     S
Yb20   O24     2.104   1_455 S
Yb20   O25     2.165   1_455 S
Yb20   O28     2.096   1_556 S
Yb20   O32     2.166   1_556 S
Yb21   O29     2.110   .     S
Yb21   O34     2.089   .     S
Yb21   O26     2.157   1_554 S
Yb21   O30     2.093   1_655 S
Yb21   O33     2.164   1_655 S
Yb21   O36     2.103   1_554 S
C22    O34     1.290   .     A
C22    C135    1.474   .     S
C22    O36     1.293   1_554 A
O23    C31     1.292   1_455 A
O24    C31     1.293   .     A
O24    Yb20    2.104   1_655 S
O25    C35     1.272   .     A
O25    Yb20    2.165   1_655 S
O26    C35     1.269   .     A
O26    Yb21    2.157   1_556 S
O27    C37     1.292   .     A
O28    Yb20    2.096   1_554 S
O28    C37     1.293   1_554 A
O29    C38     1.293   1_655 A
O30    C38     1.290   .     A
O30    Yb21    2.093   1_455 S
C31    C81     1.479   .     S
C31    O23     1.292   1_655 A
O32    C39     1.272   .     A
O32    Yb20    2.166   1_554 S
O33    C39     1.275   .     A
O33    Yb21    2.164   1_455 S
C35    C153    1.468   .     S
O36    Yb21    2.103   1_556 S
O36    C22     1.293   1_556 A
C37    C177    1.475   .     S
C37    O28     1.293   1_556 A
C38    C87     1.478   .     S
C38    O29     1.293   1_455 A
C39    C123    1.469   .     S
Yb40   O43     2.098   .     S
Yb40   O47     2.104   .     S
Yb40   O44     2.102   1_565 S
Yb40   O45     2.165   1_565 S
Yb40   O48     2.087   1_554 S
Yb40   O52     2.167   1_554 S
Yb41   O49     2.108   .     S
Yb41   O54     2.097   .     S
Yb41   O46     2.151   1_556 S
Yb41   O50     2.090   1_545 S
Yb41   O53     2.158   1_545 S
Yb41   O56     2.090   1_556 S
C42    O54     1.293   .     A
C42    C141    1.472   .     S
C42    O56     1.292   1_556 A
O43    C51     1.293   1_565 A
O44    C51     1.293   .     A
O44    Yb40    2.102   1_545 S
O45    C55     1.272   .     A
O45    Yb40    2.165   1_545 S
O46    C55     1.268   .     A
O46    Yb41    2.151   1_554 S
O47    C57     1.294   .     A
O48    Yb40    2.087   1_556 S
O48    C57     1.291   1_556 A
O49    C58     1.294   1_545 A
O50    C58     1.291   .     A
O50    Yb41    2.090   1_565 S
C51    C99     1.478   .     S
C51    O43     1.293   1_545 A
O52    C59     1.273   .     A
O52    Yb40    2.167   1_556 S
O53    C59     1.274   .     A
O53    Yb41    2.158   1_565 S
C55    C213    1.470   .     S
O56    Yb41    2.090   1_554 S
O56    C42     1.292   1_554 A
C57    C171    1.474   .     S
C57    O48     1.291   1_554 A
C58    C105    1.477   .     S
C58    O49     1.294   1_565 A
C59    C189    1.471   .     S
C60    C61     1.407   .     A
C60    N65     1.362   .     A
C60    C66     1.483   .     S
C61    C62     1.394   .     A
C61    H76     1.079   .     S
C62    C63     1.402   .     A
C62    H72     1.083   .     S
C63    C64     1.401   .     A
C64    N65     1.359   .     A
C64    H73     1.082   .     S
C66    N67     1.363   .     A
C66    C71     1.407   .     A
N67    C68     1.359   .     A
C68    C69     1.401   .     A
C68    H74     1.082   .     S
C69    C70     1.401   .     A
C70    C71     1.394   .     A
C70    H75     1.083   .     S
C71    H77     1.080   .     S
C78    N83     1.363   .     A
C78    C79     1.408   1_655 A
C78    C84     1.489   1_655 S
C79    C80     1.396   .     A
C79    H94     1.079   .     S
C79    C78     1.408   1_455 A
C80    H90     1.083   .     S
C80    C81     1.401   1_455 A
C81    C82     1.403   .     A
C81    C80     1.401   1_655 A
C82    N83     1.361   .     A
C82    H91     1.082   .     S
C84    C89     1.407   .     A
C84    C78     1.489   1_455 S
C84    N85     1.364   1_455 A
N85    C86     1.361   .     A
N85    C84     1.364   1_655 A
C86    H92     1.082   .     S
C86    C87     1.402   1_655 A
C87    C88     1.402   .     A
C87    C86     1.402   1_455 A
C88    C89     1.394   .     A
C88    H93     1.083   .     S
C89    H95     1.079   .     S
C96    N101    1.363   .     A
C96    C97     1.408   1_545 A
C96    C102    1.488   1_545 S
C97    H112    1.078   .     S
C97    C96     1.408   1_565 A
C97    C98     1.395   1_565 A
C98    C99     1.401   .     A
C98    C97     1.395   1_545 A
C98    H108    1.083   1_545 S
C99    C100    1.403   .     A
C100   N101    1.360   .     A
C100   H109    1.082   .     S
C102   C107    1.407   .     A
C102   C96     1.488   1_565 S
C102   N103    1.364   1_565 A
N103   C104    1.361   .     A
N103   C102    1.364   1_545 A
C104   H110    1.082   .     S
C104   C105    1.402   1_545 A
C105   C106    1.401   .     A
C105   C104    1.402   1_565 A
C106   C107    1.393   .     A
C106   H111    1.083   .     S
C107   H113    1.078   .     S
H108   C98     1.083   1_565 S
C114   C115    1.410   .     A
C114   N119    1.361   .     A
C114   C120    1.486   .     S
C115   C116    1.398   .     A
C115   H130    1.080   .     S
C116   C117    1.401   .     A
C116   H126    1.083   .     S
C117   C118    1.402   .     A
C118   N119    1.357   .     A
C118   H127    1.082   .     S
C120   N121    1.365   .     A
C120   C125    1.406   .     A
N121   C122    1.361   .     A
C122   C123    1.398   .     A
C122   H128    1.082   .     S
C123   C124    1.399   .     A
C124   C125    1.394   .     A
C124   H129    1.083   .     S
C125   H131    1.079   .     S
C132   C133    1.403   .     A
C132   N137    1.362   .     A
C132   C138    1.474   1_554 S
C133   C134    1.394   .     A
C133   H148    1.082   .     S
C134   C135    1.403   .     A
C134   H144    1.083   .     S
C135   C136    1.401   .     A
C136   N137    1.359   .     A
C136   H145    1.082   .     S
C138   N139    1.360   .     A
C138   C143    1.405   .     A
C138   C132    1.474   1_556 S
N139   C140    1.357   .     A
C140   C141    1.402   .     A
C140   H146    1.082   .     S
C141   C142    1.402   .     A
C142   C143    1.396   .     A
C142   H147    1.083   .     S
C143   H149    1.082   .     S
C150   C151    1.411   .     A
C150   N155    1.362   .     A
C150   C156    1.489   .     S
C151   C152    1.397   .     A
C151   H166    1.078   .     S
C152   C153    1.397   .     A
C152   H162    1.083   .     S
C153   C154    1.399   .     A
C154   N155    1.359   .     A
C154   H163    1.083   .     S
C156   N157    1.365   .     A
C156   C161    1.407   .     A
N157   C158    1.362   .     A
C158   C159    1.401   .     A
C158   H164    1.082   .     S
C159   C160    1.402   .     A
C160   C161    1.393   .     A
C160   H165    1.083   .     S
C161   H167    1.079   .     S
C168   C169    1.406   .     A
C168   N173    1.360   .     A
C168   C174    1.475   1_554 S
C169   C170    1.398   .     A
C169   H184    1.082   1_554 S
C170   C171    1.402   .     A
C170   H180    1.083   .     S
C171   C172    1.402   .     A
C172   N173    1.357   .     A
C172   H181    1.082   .     S
C174   N175    1.362   .     A
C174   C179    1.403   .     A
C174   C168    1.475   1_556 S
N175   C176    1.358   .     A
C176   C177    1.402   .     A
C176   H182    1.082   .     S
C177   C178    1.403   .     A
C178   C179    1.395   .     A
C178   H183    1.083   .     S
C179   H185    1.082   .     S
H184   C169    1.082   1_556 S
C186   C187    1.409   .     A
C186   N191    1.363   .     A
C186   C192    1.488   .     S
C187   C188    1.399   .     A
C187   H202    1.079   1_556 S
C188   C189    1.400   .     A
C188   H198    1.083   .     S
C189   C190    1.399   .     A
C190   N191    1.358   .     A
C190   H199    1.083   .     S
C192   N193    1.362   .     A
C192   C197    1.410   .     A
N193   C194    1.357   .     A
C194   C195    1.399   .     A
C194   H200    1.083   .     S
C195   C196    1.399   .     A
C195   C15     1.471   1_556 S
C196   C197    1.400   .     A
C196   H201    1.083   1_556 S
C197   H203    1.079   1_556 S
H201   C196    1.083   1_554 S
H202   C187    1.079   1_554 S
H203   C197    1.079   1_554 S
C204   C205    1.408   .     A
C204   N209    1.366   .     A
C204   C210    1.493   .     S
C205   C206    1.392   .     A
C205   H220    1.078   .     S
C206   C207    1.398   .     A
C206   H216    1.084   .     S
C207   C208    1.400   .     A
C208   N209    1.364   .     A
C208   H217    1.082   .     S
C210   N211    1.364   .     A
C210   C215    1.411   .     A
N211   C212    1.362   .     A
C212   C213    1.401   .     A
C212   H218    1.083   .     S
C213   C214    1.396   .     A
C214   C215    1.394   .     A
C214   H219    1.083   .     S
C215   H221    1.078   .     S
