data_kag+N139+E191
_audit_creation_date              2025-01-21
_audit_creation_method            'Materials Studio'
_symmetry_space_group_name_H-M    'P1'
_symmetry_Int_Tables_number       1
_symmetry_cell_setting            triclinic
loop_
_symmetry_equiv_pos_as_xyz
  x,y,z
_cell_length_a                    37.9909
_cell_length_b                    31.4616
_cell_length_c                    21.1680
_cell_angle_alpha                 84.8588
_cell_angle_beta                  80.9043
_cell_angle_gamma                 122.3415
loop_
_atom_site_label
_atom_site_type_symbol
_atom_site_fract_x
_atom_site_fract_y
_atom_site_fract_z
_atom_site_U_iso_or_equiv
_atom_site_adp_type
_atom_site_occupancy
C0     C     0.52371   0.49404   0.77772   0.00000  Uiso   1.00
Sm1    Sm    0.47471   0.51074   0.10222   0.00000  Uiso   1.00
Sm2    Sm    0.53034   0.49464   0.89842   0.00000  Uiso   1.00
C3     C     0.48656   0.43203   0.04604   0.00000  Uiso   1.00
C4     C     0.58532   0.47567   0.93123   0.00000  Uiso   1.00
O5     O     0.51502   0.53845   0.17301   0.00000  Uiso   1.00
O6     O     0.44581   0.48521   0.20900   0.00000  Uiso   1.00
O7     O     0.52323   0.56158   0.89897   0.00000  Uiso   1.00
O8     O     0.52083   0.54871   0.00231   0.00000  Uiso   1.00
O9     O     0.41877   0.48981   1.06038   0.00000  Uiso   1.00
O10    O     0.44922   0.56005   0.09710   0.00000  Uiso   1.00
O11    O     0.49091   0.46710   0.82658   0.00000  Uiso   1.00
O12    O     0.56019   0.52058   0.79200   0.00000  Uiso   1.00
O13    O     0.48128   0.44341   0.10127   0.00000  Uiso   1.00
O14    O     0.48367   0.45604   0.99784   0.00000  Uiso   1.00
O15    O     0.58587   0.51558  -0.05863   0.00000  Uiso   1.00
O16    O     0.55588   0.44554   0.90409   0.00000  Uiso   1.00
C17    C     0.48259   0.51170   0.22244   0.00000  Uiso   1.00
C18    C     0.51794   0.57284   0.95426   0.00000  Uiso   1.00
C19    C     0.41948   0.52981   0.07048   0.00000  Uiso   1.00
C20    C     1.00938   0.48639   0.21325   0.00000  Uiso   1.00
Sm21   Sm    0.99285   0.54429   0.90534   0.00000  Uiso   1.00
Sm22   Sm    0.01093   0.46122   0.09574   0.00000  Uiso   1.00
C23    C     0.05001   0.57294   1.00661   0.00000  Uiso   1.00
C24    C     0.09474   0.50120   0.06331   0.00000  Uiso   1.00
O25    O     0.95974   0.50527   0.82865   0.00000  Uiso   1.00
O26    O     0.02814   0.54370   0.80958   0.00000  Uiso   1.00
O27    O     0.95679   0.41416   0.04770   0.00000  Uiso   1.00
O28    O     0.98768   0.47429   0.95827   0.00000  Uiso   1.00
O29    O     0.93334   0.52634  -0.02423   0.00000  Uiso   1.00
O30    O     0.92773   0.49972   0.88546   0.00000  Uiso   1.00
O31    O     0.04411   0.50012   0.17232   0.00000  Uiso   1.00
O32    O     0.97573   0.46222   0.19130   0.00000  Uiso   1.00
O33    O     0.04739   0.59159   0.95285   0.00000  Uiso   1.00
O34    O     0.01679   0.53152   0.04220   0.00000  Uiso   1.00
O35    O     0.07009   0.47787   1.02601   0.00000  Uiso   1.00
O36    O     0.07593   0.50533   0.11580   0.00000  Uiso   1.00
C37    C    -0.00547   0.51920   0.78770   0.00000  Uiso   1.00
C38    C     0.95448   0.43277  -0.00635   0.00000  Uiso   1.00
C39    C     0.90870   0.50302   0.93847   0.00000  Uiso   1.00
C40    C     0.47647  -0.04218   0.23036   0.00000  Uiso   1.00
Sm41   Sm    0.53579   0.04978   0.88929   0.00000  Uiso   1.00
Sm42   Sm    0.47019   0.95593   0.10845   0.00000  Uiso   1.00
C43    C     0.50150   0.94214   0.96697   0.00000  Uiso   1.00
C44    C     0.40015   0.87618   0.08860   0.00000  Uiso   1.00
O45    O     0.49940   0.04109   0.81306   0.00000  Uiso   1.00
O46    O     0.56344   1.05745   0.78496   0.00000  Uiso   1.00
O47    O     0.49750   0.04101   0.08896   0.00000  Uiso   1.00
O48    O     0.49425   0.03692   0.98771   0.00000  Uiso   1.00
O49    O     0.59330   0.08281  -0.07048   0.00000  Uiso   1.00
O50    O     0.58102   0.13474   0.87923   0.00000  Uiso   1.00
O51    O     0.50660   0.96448   0.18460   0.00000  Uiso   1.00
O52    O     0.44248  -0.05210   0.21282   0.00000  Uiso   1.00
O53    O     0.50850   0.96469   0.90899   0.00000  Uiso   1.00
O54    O     0.51185   0.96951   0.00996   0.00000  Uiso   1.00
O55    O     0.41261   0.92282   1.06850   0.00000  Uiso   1.00
O56    O     0.42500   0.87083   0.11820   0.00000  Uiso   1.00
C57    C     0.52943   1.04746   0.76739   0.00000  Uiso   1.00
C58    C     0.50483   0.06399   0.03104   0.00000  Uiso   1.00
C59    C     0.60573   0.12941   0.90922   0.00000  Uiso   1.00
Ni60   Ni    0.50416   0.50263   0.49958   0.00000  Uiso   1.00
C61    C     0.48752   0.51057   0.28981   0.00000  Uiso   1.00
C62    C     0.52816   0.54207   0.30206   0.00000  Uiso   1.00
C63    C     0.53248   0.53905   0.36613   0.00000  Uiso   1.00
C64    C     0.45785   0.47496   0.40563   0.00000  Uiso   1.00
C65    C     0.45201   0.47680   0.34235   0.00000  Uiso   1.00
H66    H     0.58680   0.55447   0.66639   0.00000  Uiso   1.00
H67    H     0.45089   0.43662   0.73616   0.00000  Uiso   1.00
H68    H     0.44452   0.44136   0.62206   0.00000  Uiso   1.00
H69    H     0.57730   0.55672   0.55363   0.00000  Uiso   1.00
N70    N     0.51055   0.49934   0.58326   0.00000  Uiso   1.00
N71    N     0.49757   0.50583   0.41601   0.00000  Uiso   1.00
H72    H     0.55627   0.56855   0.26261   0.00000  Uiso   1.00
H73    H     0.56365   0.56300   0.37625   0.00000  Uiso   1.00
H74    H     0.43081   0.44879   0.44660   0.00000  Uiso   1.00
H75    H     0.42024   0.45179   0.33457   0.00000  Uiso   1.00
C76    C     0.51947   0.49521   0.71005   0.00000  Uiso   1.00
C77    C     0.47917   0.46325   0.69707   0.00000  Uiso   1.00
C78    C     0.47543   0.46587   0.63272   0.00000  Uiso   1.00
C79    C     0.55002   0.53059   0.59431   0.00000  Uiso   1.00
C80    C     0.55527   0.52913   0.65797   0.00000  Uiso   1.00
Ni81   Ni    0.00214   0.50288   0.50041   0.00000  Uiso   1.00
C82    C    -0.00441   0.51039   0.71987   0.00000  Uiso   1.00
C83    C    -0.04164   0.49009   0.69609   0.00000  Uiso   1.00
C84    C    -0.03916   0.48714   0.63002   0.00000  Uiso   1.00
C85    C     0.03534   0.52218   0.61080   0.00000  Uiso   1.00
C86    C     0.03433   0.52600   0.67645   0.00000  Uiso   1.00
H87    H     0.94078   0.46593   0.30764   0.00000  Uiso   1.00
H88    H     1.07565   0.52462   0.27388   0.00000  Uiso   1.00
H89    H     1.07137   0.53044   0.39007   0.00000  Uiso   1.00
H90    H    -0.06048   0.47370   0.42302   0.00000  Uiso   1.00
N91    N     1.00519   0.50190   0.41224   0.00000  Uiso   1.00
N92    N    -0.00092   0.50382   0.58860   0.00000  Uiso   1.00
H93    H    -0.07215   0.47792   0.72779   0.00000  Uiso   1.00
H94    H    -0.06766   0.47235   0.61148   0.00000  Uiso   1.00
H95    H     1.06529   0.53472   0.57718   0.00000  Uiso   1.00
H96    H     0.06374   0.54197   0.69275   0.00000  Uiso   1.00
C97    C     1.00845   0.49506   0.28110   0.00000  Uiso   1.00
C98    C     1.04545   0.51381   0.30523   0.00000  Uiso   1.00
C99    C     1.04308   0.51689   0.37124   0.00000  Uiso   1.00
C100   C     0.96918   0.48495   0.38972   0.00000  Uiso   1.00
C101   C     0.97004   0.48089   0.32416   0.00000  Uiso   1.00
Ni102  Ni    0.50293   0.00229   0.49895   0.00000  Uiso   1.00
C103   C     0.48129  -0.03607   0.29745   0.00000  Uiso   1.00
C104   C     0.45033   0.96477   0.34232   0.00000  Uiso   1.00
C105   C     0.45730   0.97569   0.40337   0.00000  Uiso   1.00
C106   C     0.52375  -0.01671   0.37772   0.00000  Uiso   1.00
C107   C     0.51814  -0.02733   0.31598   0.00000  Uiso   1.00
H108   H     0.46247   1.03108   0.71560   0.00000  Uiso   1.00
H109   H     0.58468   0.04761   0.66772   0.00000  Uiso   1.00
H110   H     0.57234   0.02843   0.55983   0.00000  Uiso   1.00
H111   H     0.45302   1.01266   0.60619   0.00000  Uiso   1.00
N112   N     0.51209   1.01940   0.57842   0.00000  Uiso   1.00
N113   N     0.49373  -0.01481   0.41949   0.00000  Uiso   1.00
H114   H     0.42155   0.95839   0.32978   0.00000  Uiso   1.00
H115   H     0.43399   0.97744   0.43765   0.00000  Uiso   1.00
H116   H     0.55234  -0.00922   0.39206   0.00000  Uiso   1.00
H117   H     0.54264  -0.02787   0.28280   0.00000  Uiso   1.00
C118   C     0.52448   1.04093   0.70042   0.00000  Uiso   1.00
C119   C     0.55570   0.04065   0.65535   0.00000  Uiso   1.00
C120   C     0.54876   0.02961   0.59432   0.00000  Uiso   1.00
C121   C     0.48177   1.02063   0.62042   0.00000  Uiso   1.00
C122   C     0.48729   1.03125   0.68219   0.00000  Uiso   1.00
Ni123  Ni    0.27430   0.55002   1.03124   0.00000  Uiso   1.00
C124   C     0.38807   0.53982   1.05325   0.00000  Uiso   1.00
C125   C     0.35834   0.50742   1.01981   0.00000  Uiso   1.00
C126   C     0.32610   0.51410   1.00953   0.00000  Uiso   1.00
C127   C     0.35294   0.58520   1.06169   0.00000  Uiso   1.00
C128   C     0.38603   0.58014   1.07259   0.00000  Uiso   1.00
H129   H     0.14383   0.49890   0.95554   0.00000  Uiso   1.00
H130   H     0.14918   0.54575   0.14138   0.00000  Uiso   1.00
H131   H     0.22292   0.56714   0.12487   0.00000  Uiso   1.00
H132   H     0.21825   0.52183   0.94273   0.00000  Uiso   1.00
N133   N     0.22402   0.54597   1.03291   0.00000  Uiso   1.00
N134   N     0.32340   0.55169   1.03175   0.00000  Uiso   1.00
H135   H     0.35909   0.47614   1.00370   0.00000  Uiso   1.00
H136   H     0.30186   0.48777   0.98654   0.00000  Uiso   1.00
H137   H     0.34975   0.61441   0.07959   0.00000  Uiso   1.00
H138   H     0.40869   0.60609   0.09809   0.00000  Uiso   1.00
C139   C     0.14067   0.52057   1.04948   0.00000  Uiso   1.00
C140   C     0.16388   0.54135   0.09647   0.00000  Uiso   1.00
C141   C     0.20572   0.55375   0.08719   0.00000  Uiso   1.00
C142   C     0.20303   0.52817   0.98509   0.00000  Uiso   1.00
C143   C     0.16094   0.51511   0.99249   0.00000  Uiso   1.00
Ni144  Ni    0.77923   0.30141  -0.06044   0.00000  Uiso   1.00
C145   C     0.91290   0.40672  -0.02363   0.00000  Uiso   1.00
C146   C     0.87558   0.38927   0.02453   0.00000  Uiso   1.00
C147   C     0.83564   0.36043   0.01022   0.00000  Uiso   1.00
C148   C     0.86858   0.36569   0.90220   0.00000  Uiso   1.00
C149   C     0.90936   0.39485   0.91447   0.00000  Uiso   1.00
H150   H     0.64937   0.23217  -0.14778   0.00000  Uiso   1.00
H151   H     0.65405   0.12509   0.98770   0.00000  Uiso   1.00
H152   H     0.72418   0.19649   0.99745   0.00000  Uiso   1.00
H153   H     0.72036   0.30182  -0.13505   0.00000  Uiso   1.00
N154   N     0.72546   0.25201  -0.06855   0.00000  Uiso   1.00
N155   N     0.83284   0.34877  -0.04979   0.00000  Uiso   1.00
H156   H     0.87739   0.39744   0.07297   0.00000  Uiso   1.00
H157   H     0.80664   0.34570   0.04769   0.00000  Uiso   1.00
H158   H     0.86533   0.35488   0.85533   0.00000  Uiso   1.00
H159   H     0.93761   0.40650   0.87703   0.00000  Uiso   1.00
C160   C     0.64611   0.17298  -0.08103   0.00000  Uiso   1.00
C161   C     0.66755   0.16346   0.96045   0.00000  Uiso   1.00
C162   C     0.70726   0.20372   0.96609   0.00000  Uiso   1.00
C163   C     0.70515   0.26291  -0.10817   0.00000  Uiso   1.00
C164   C     0.66494   0.22353  -0.11506   0.00000  Uiso   1.00
Ni165  Ni    0.72891   0.45310  -0.02739   0.00000  Uiso   1.00
C166   C     0.86249   0.48258  -0.04703   0.00000  Uiso   1.00
C167   C     0.83952   0.46311  -0.09468   0.00000  Uiso   1.00
C168   C     0.79752   0.45023  -0.08476   0.00000  Uiso   1.00
C169   C     0.79935   0.47212   0.01952   0.00000  Uiso   1.00
C170   C     0.84159   0.48549   1.01161   0.00000  Uiso   1.00
H171   H     0.59618   0.39987  -0.09706   0.00000  Uiso   1.00
H172   H     0.64530   0.52874   0.99923   0.00000  Uiso   1.00
H173   H     0.70179   0.51596   1.01776   0.00000  Uiso   1.00
H174   H     0.65419   0.39032  -0.07711   0.00000  Uiso   1.00
N175   N     0.68026   0.45237  -0.02817   0.00000  Uiso   1.00
N176   N     0.77881   0.45625  -0.02920   0.00000  Uiso   1.00
H177   H     0.85449   0.46014  -0.14054   0.00000  Uiso   1.00
H178   H     0.78057   0.43817  -0.12296   0.00000  Uiso   1.00
H179   H     0.78374   0.47686   1.06306   0.00000  Uiso   1.00
H180   H     0.85825   0.49983   1.04961   0.00000  Uiso   1.00
C181   C     0.61652   0.46553  -0.05112   0.00000  Uiso   1.00
C182   C     0.64597   0.49745  -0.01696   0.00000  Uiso   1.00
C183   C     0.67777   0.49009  -0.00592   0.00000  Uiso   1.00
C184   C     0.65106   0.41951  -0.05903   0.00000  Uiso   1.00
C185   C     0.61850   0.42527  -0.07073   0.00000  Uiso   1.00
Ni186  Ni    0.22606   0.70443   1.05888   0.00000  Uiso   1.00
C187   C     0.35952   0.83271   1.07914   0.00000  Uiso   1.00
C188   C     0.33654   0.84299   1.04180   0.00000  Uiso   1.00
C189   C     0.29671   0.80291   1.03631   0.00000  Uiso   1.00
C190   C     0.30167   0.74228   0.10241   0.00000  Uiso   1.00
C191   C     0.34202   0.78152   0.10914   0.00000  Uiso   1.00
H192   H     0.12706   0.60924   0.92589   0.00000  Uiso   1.00
H193   H     0.06764   0.59765   0.12371   0.00000  Uiso   1.00
H194   H     0.14021   0.64933   0.14442   0.00000  Uiso   1.00
H195   H     0.19804   0.66068   0.95044   0.00000  Uiso   1.00
N196   N     0.17233   0.65693   1.04850   0.00000  Uiso   1.00
N197   N     0.27987   0.75392   1.06697   0.00000  Uiso   1.00
H198   H     0.34896   0.88184   1.01765   0.00000  Uiso   1.00
H199   H     0.27872   0.81083   1.00812   0.00000  Uiso   1.00
H200   H     0.28757   0.70280   0.12594   0.00000  Uiso   1.00
H201   H     0.35884   0.77213   0.13837   0.00000  Uiso   1.00
C202   C     0.09185   0.59884   1.02335   0.00000  Uiso   1.00
C203   C     0.09577   0.61002   0.08550   0.00000  Uiso   1.00
C204   C     0.13673   0.63924   0.09724   0.00000  Uiso   1.00
C205   C     0.16918   0.64565   0.98837   0.00000  Uiso   1.00
C206   C     0.12906   0.61682   0.97454   0.00000  Uiso   1.00
Ni207  Ni    0.48514   0.74026   0.98274   0.00000  Uiso   1.00
C208   C     0.48639   0.88730   0.98078   0.00000  Uiso   1.00
C209   C     0.49555   0.86778   0.03348   0.00000  Uiso   1.00
C210   C     0.49174   0.82089   0.03599   0.00000  Uiso   1.00
C211   C     0.46716   0.81046   0.93878   0.00000  Uiso   1.00
C212   C     0.47048   0.85710   0.93437   0.00000  Uiso   1.00
H213   H     0.54518   0.64042   0.03481   0.00000  Uiso   1.00
H214   H     0.47115   0.59536   0.88946   0.00000  Uiso   1.00
H215   H     0.45742   0.66289   0.90409   0.00000  Uiso   1.00
H216   H     0.53003   0.70695   0.04620   0.00000  Uiso   1.00
N217   N     0.49254   0.68738   0.97651   0.00000  Uiso   1.00
N218   N     0.47908   0.79424   0.98789   0.00000  Uiso   1.00
H219   H     0.50837   0.89012   0.06981   0.00000  Uiso   1.00
H220   H     0.50139   0.80726   0.07415   0.00000  Uiso   1.00
H221   H     0.45756   0.78867   0.90089   0.00000  Uiso   1.00
H222   H     0.46326   0.87088   0.89281   0.00000  Uiso   1.00
C223   C     0.50863   0.61213   0.96199   0.00000  Uiso   1.00
C224   C     0.48421   0.61920   0.92440   0.00000  Uiso   1.00
C225   C     0.47621   0.65712   0.93284   0.00000  Uiso   1.00
C226   C     0.51684   0.68175   0.01272   0.00000  Uiso   1.00
C227   C     0.52547   0.64426   0.00605   0.00000  Uiso   1.00
Ni228  Ni    0.52049   0.26514   0.01952   0.00000  Uiso   1.00
C229   C     0.49609   0.39283   0.03871   0.00000  Uiso   1.00
C230   C     0.48027   0.36112   0.99384   0.00000  Uiso   1.00
C231   C     0.48891   0.32353   0.98815   0.00000  Uiso   1.00
C232   C     0.52759   0.34725   0.07047   0.00000  Uiso   1.00
C233   C     0.51962   0.38531   0.07785   0.00000  Uiso   1.00
H234   H     0.49917   0.11782   0.92851   0.00000  Uiso   1.00
H235   H     0.54318   0.13413   0.10645   0.00000  Uiso   1.00
H236   H     0.54810   0.21577   0.10112   0.00000  Uiso   1.00
H237   H     0.50604   0.20047   0.92633   0.00000  Uiso   1.00
N238   N     0.52737   0.21182   0.01343   0.00000  Uiso   1.00
N239   N     0.51223   0.31737   0.02606   0.00000  Uiso   1.00
H240   H     0.46158   0.36556   0.96339   0.00000  Uiso   1.00
H241   H     0.47670   0.29882   0.95381   0.00000  Uiso   1.00
H242   H     0.54572   0.34121   0.10042   0.00000  Uiso   1.00
H243   H     0.53207   0.40900   0.11318   0.00000  Uiso   1.00
C244   C     0.52046   0.11906   0.01797   0.00000  Uiso   1.00
C245   C     0.53611   0.14850   0.06519   0.00000  Uiso   1.00
C246   C     0.53906   0.19489   0.06227   0.00000  Uiso   1.00
C247   C     0.51543   0.18622   0.96426   0.00000  Uiso   1.00
C248   C     0.51174   0.13947   0.96551   0.00000  Uiso   1.00
loop_
_geom_bond_atom_site_label_1
_geom_bond_atom_site_label_2
_geom_bond_distance
_geom_bond_site_symmetry_2
_ccdc_geom_bond_type
C0     O11     1.283   .     A
C0     O12     1.284   .     A
C0     C76     1.466   .     S
Sm1    O5      2.209   .     S
Sm1    O6      2.215   .     S
Sm1    O8      2.260   .     S
Sm1    O10     2.228   .     S
Sm1    O13     2.263   .     S
Sm1    O9      2.222   1_554 S
Sm2    O7      2.263   .     S
Sm2    O11     2.208   .     S
Sm2    O12     2.214   .     S
Sm2    O14     2.260   .     S
Sm2    O16     2.225   .     S
Sm2    O15     2.222   1_556 S
C3     O13     1.270   .     A
C3     C229    1.473   .     S
C3     O14     1.269   1_554 A
C4     O16     1.283   .     A
C4     O15     1.282   1_556 A
C4     C181    1.473   1_556 S
O5     C17     1.283   .     A
O6     C17     1.285   .     A
O7     C18     1.269   .     A
O8     C18     1.268   1_554 A
O9     Sm1     2.222   1_556 S
O9     C19     1.282   1_556 A
O10    C19     1.283   .     A
O14    C3      1.269   1_556 A
O15    Sm2     2.222   1_554 S
O15    C4      1.282   1_554 A
C17    C61     1.467   .     S
C18    C223    1.472   .     S
C18    O8      1.268   1_556 A
C19    O9      1.282   1_554 A
C19    C124    1.475   1_554 S
C20    O32     1.280   .     A
C20    C97     1.484   .     S
C20    O31     1.281   1_655 A
Sm21   O25     2.253   .     S
Sm21   O28     2.274   .     S
Sm21   O30     2.233   .     S
Sm21   O26     2.254   1_655 S
Sm21   O29     2.252   1_556 S
Sm21   O33     2.269   1_655 S
Sm22   O31     2.251   .     S
Sm22   O34     2.274   .     S
Sm22   O36     2.231   .     S
Sm22   O27     2.265   1_455 S
Sm22   O32     2.254   1_455 S
Sm22   O35     2.249   1_554 S
C23    O33     1.276   .     A
C23    C202    1.470   .     S
C23    O34     1.274   1_556 A
C24    O36     1.279   .     A
C24    O35     1.281   1_554 A
C24    C139    1.473   1_554 S
O25    C37     1.281   1_655 A
O26    C37     1.280   .     A
O26    Sm21    2.254   1_455 S
O27    C38     1.275   .     A
O27    Sm22    2.265   1_655 S
O28    C38     1.273   1_556 A
O29    Sm21    2.252   1_554 S
O29    C39     1.281   1_554 A
O30    C39     1.279   .     A
O31    C20     1.281   1_455 A
O32    Sm22    2.254   1_655 S
O33    Sm21    2.269   1_455 S
O34    C23     1.274   1_554 A
O35    Sm22    2.249   1_556 S
O35    C24     1.281   1_556 A
C37    C82     1.485   .     S
C37    O25     1.281   1_455 A
C38    C145    1.467   .     S
C38    O28     1.273   1_554 A
C39    O29     1.281   1_556 A
C39    C166    1.475   1_556 S
C40    O52     1.282   .     A
C40    C103    1.477   .     S
C40    O51     1.284   1_545 A
Sm41   O45     2.230   .     S
Sm41   O48     2.263   .     S
Sm41   O50     2.239   .     S
Sm41   O46     2.222   1_545 S
Sm41   O49     2.213   1_556 S
Sm41   O53     2.260   1_545 S
Sm42   O51     2.229   .     S
Sm42   O54     2.260   .     S
Sm42   O56     2.242   .     S
Sm42   O47     2.260   1_565 S
Sm42   O52     2.221   1_565 S
Sm42   O55     2.212   1_554 S
C43    O53     1.273   .     A
C43    C208    1.479   .     S
C43    O54     1.271   1_556 A
C44    O56     1.285   .     A
C44    O55     1.280   1_554 A
C44    C187    1.477   1_554 S
O45    C57     1.284   1_545 A
O46    C57     1.282   .     A
O46    Sm41    2.222   1_565 S
O47    C58     1.273   .     A
O47    Sm42    2.260   1_545 S
O48    C58     1.272   1_556 A
O49    Sm41    2.213   1_554 S
O49    C59     1.280   1_554 A
O50    C59     1.285   .     A
O51    C40     1.284   1_565 A
O52    Sm42    2.221   1_545 S
O53    Sm41    2.260   1_565 S
O54    C43     1.271   1_554 A
O55    Sm42    2.212   1_556 S
O55    C44     1.280   1_556 A
C57    C118    1.477   .     S
C57    O45     1.284   1_565 A
C58    C244    1.481   .     S
C58    O48     1.272   1_554 A
C59    O49     1.280   1_556 A
C59    C160    1.475   1_556 S
Ni60   N70     1.827   .     S
Ni60   N71     1.827   .     S
C61    C62     1.403   .     A
C61    C65     1.402   .     A
C62    C63     1.393   .     A
C62    H72     1.083   .     S
C63    N71     1.357   .     A
C63    H73     1.082   .     S
C64    C65     1.393   .     A
C64    N71     1.358   .     A
C64    H74     1.082   .     S
C65    H75     1.083   .     S
H66    C80     1.083   .     S
H67    C77     1.083   .     S
H68    C78     1.082   .     S
H69    C79     1.082   .     S
N70    C78     1.358   .     A
N70    C79     1.358   .     A
C76    C77     1.402   .     A
C76    C80     1.402   .     A
C77    C78     1.391   .     A
C79    C80     1.393   .     A
Ni81   N92     1.856   .     S
Ni81   N91     1.856   1_455 S
C82    C83     1.406   .     A
C82    C86     1.404   .     A
C83    C84     1.402   .     A
C83    H93     1.083   .     S
C84    N92     1.361   .     A
C84    H94     1.082   .     S
C85    C86     1.402   .     A
C85    N92     1.362   .     A
C85    H95     1.082   1_455 S
C86    H96     1.083   .     S
H87    C101    1.083   .     S
H88    C98     1.084   .     S
H89    C99     1.082   .     S
H90    C100    1.081   1_455 S
N91    C99     1.361   .     A
N91    C100    1.362   .     A
N91    Ni81    1.856   1_655 S
H95    C85     1.082   1_655 S
C97    C98     1.406   .     A
C97    C101    1.403   .     A
C98    C99     1.401   .     A
C100   C101    1.402   .     A
C100   H90     1.081   1_655 S
Ni102  N113    1.841   .     S
Ni102  N112    1.840   1_545 S
C103   C107    1.404   .     A
C103   C104    1.404   1_545 A
C104   C105    1.396   .     A
C104   H114    1.083   .     S
C104   C103    1.404   1_565 A
C105   H115    1.082   .     S
C105   N113    1.359   1_565 A
C106   C107    1.398   .     A
C106   N113    1.360   .     A
C106   H116    1.082   .     S
C107   H117    1.083   .     S
H108   C122    1.083   .     S
H109   C119    1.083   .     S
H110   C120    1.082   .     S
H111   C121    1.082   .     S
N112   C121    1.360   .     A
N112   Ni102   1.840   1_565 S
N112   C120    1.359   1_565 A
N113   C105    1.359   1_545 A
C118   C122    1.404   .     A
C118   C119    1.404   1_565 A
C119   C120    1.396   .     A
C119   C118    1.404   1_545 A
C120   N112    1.359   1_545 A
C121   C122    1.398   .     A
Ni123  N133    1.839   .     S
Ni123  N134    1.840   .     S
C124   C125    1.402   .     A
C124   C128    1.404   .     A
C124   C19     1.475   1_556 S
C125   C126    1.394   .     A
C125   H135    1.083   .     S
C126   N134    1.358   .     A
C126   H136    1.081   .     S
C127   C128    1.399   .     A
C127   N134    1.361   .     A
C127   H137    1.082   1_556 S
C128   H138    1.083   1_556 S
H129   C143    1.083   .     S
H130   C140    1.083   .     S
H131   C141    1.082   .     S
H132   C142    1.082   .     S
N133   C142    1.361   .     A
N133   C141    1.358   1_556 A
H137   C127    1.082   1_554 S
H138   C128    1.083   1_554 S
C139   C143    1.401   .     A
C139   C140    1.404   1_556 A
C139   C24     1.473   1_556 S
C140   C141    1.393   .     A
C140   C139    1.404   1_554 A
C141   N133    1.358   1_554 A
C142   C143    1.399   .     A
Ni144  N154    1.838   .     S
Ni144  N155    1.838   .     S
C145   C146    1.400   .     A
C145   C149    1.401   1_554 A
C146   C147    1.392   .     A
C146   H156    1.083   .     S
C147   N155    1.358   .     A
C147   H157    1.081   .     S
C148   C149    1.400   .     A
C148   H158    1.081   .     S
C148   N155    1.361   1_556 A
C149   H159    1.083   .     S
C149   C145    1.401   1_556 A
H150   C164    1.083   .     S
H151   C161    1.083   .     S
H152   C162    1.081   .     S
H153   C163    1.082   .     S
N154   C163    1.361   .     A
N154   C162    1.357   1_554 A
N155   C148    1.361   1_554 A
C160   C164    1.405   .     A
C160   C161    1.402   1_554 A
C160   C59     1.475   1_554 S
C161   C162    1.391   .     A
C161   C160    1.402   1_556 A
C162   N154    1.357   1_556 A
C163   C164    1.403   .     A
Ni165  N175    1.839   .     S
Ni165  N176    1.839   .     S
C166   C167    1.404   .     A
C166   C170    1.402   1_554 A
C166   C39     1.475   1_554 S
C167   C168    1.393   .     A
C167   H177    1.083   .     S
C168   N176    1.358   .     A
C168   H178    1.082   .     S
C169   N176    1.361   .     A
C169   C170    1.400   1_554 A
C169   H179    1.082   1_554 S
C170   H180    1.082   .     S
C170   C166    1.402   1_556 A
C170   C169    1.400   1_556 A
H171   C185    1.083   .     S
H172   C182    1.083   1_556 S
H173   C183    1.082   1_556 S
H174   C184    1.082   .     S
N175   C183    1.358   .     A
N175   C184    1.360   .     A
H179   C169    1.082   1_556 S
C181   C182    1.402   .     A
C181   C185    1.403   .     A
C181   C4      1.473   1_554 S
C182   C183    1.395   .     A
C182   H172    1.083   1_554 S
C183   H173    1.082   1_554 S
C184   C185    1.397   .     A
Ni186  N196    1.840   .     S
Ni186  N197    1.840   .     S
C187   C188    1.402   .     A
C187   C191    1.406   1_556 A
C187   C44     1.477   1_556 S
C188   C189    1.390   .     A
C188   H198    1.083   .     S
C189   N197    1.357   .     A
C189   H199    1.082   .     S
C190   C191    1.404   .     A
C190   H200    1.082   .     S
C190   N197    1.362   1_554 A
C191   H201    1.083   .     S
C191   C187    1.406   1_554 A
H192   C206    1.083   .     S
H193   C203    1.083   .     S
H194   C204    1.081   .     S
H195   C205    1.081   .     S
N196   C205    1.358   .     A
N196   C204    1.361   1_556 A
N197   C190    1.362   1_556 A
C202   C206    1.401   .     A
C202   C203    1.402   1_556 A
C203   C204    1.400   .     A
C203   C202    1.402   1_554 A
C204   N196    1.361   1_554 A
C205   C206    1.393   .     A
Ni207  N217    1.842   .     S
Ni207  N218    1.842   .     S
C208   C212    1.405   .     A
C208   C209    1.404   1_556 A
C209   C210    1.398   .     A
C209   H219    1.083   .     S
C209   C208    1.404   1_554 A
C210   H220    1.082   .     S
C210   N218    1.359   1_554 A
C211   C212    1.397   .     A
C211   N218    1.359   .     A
C211   H221    1.082   .     S
C212   H222    1.083   .     S
H213   C227    1.083   .     S
H214   C224    1.083   .     S
H215   C225    1.081   .     S
H216   C226    1.082   .     S
N217   C225    1.361   .     A
N217   C226    1.359   1_556 A
N218   C210    1.359   1_556 A
C223   C224    1.402   .     A
C223   C227    1.402   1_556 A
C224   C225    1.399   .     A
C226   C227    1.396   .     A
C226   N217    1.359   1_554 A
C227   C223    1.402   1_554 A
Ni228  N238    1.843   .     S
Ni228  N239    1.843   .     S
C229   C233    1.402   .     A
C229   C230    1.403   1_554 A
C230   C231    1.396   .     A
C230   H240    1.083   .     S
C230   C229    1.403   1_556 A
C231   H241    1.082   .     S
C231   N239    1.359   1_556 A
C232   C233    1.399   .     A
C232   N239    1.361   .     A
C232   H242    1.081   .     S
C233   H243    1.083   .     S
H234   C248    1.082   .     S
H235   C245    1.083   .     S
H236   C246    1.082   .     S
H237   C247    1.082   .     S
N238   C246    1.360   .     A
N238   C247    1.359   1_554 A
N239   C231    1.359   1_554 A
C244   C245    1.405   .     A
C244   C248    1.404   1_554 A
C245   C246    1.398   .     A
C247   C248    1.398   .     A
C247   N238    1.359   1_556 A
C248   C244    1.404   1_556 A
