data_kag+N205+E70
_audit_creation_date              2025-01-21
_audit_creation_method            'Materials Studio'
_symmetry_space_group_name_H-M    'P1'
_symmetry_Int_Tables_number       1
_symmetry_cell_setting            triclinic
loop_
_symmetry_equiv_pos_as_xyz
  x,y,z
_cell_length_a                    28.0384
_cell_length_b                    26.9901
_cell_length_c                    8.6465
_cell_angle_alpha                 76.0766
_cell_angle_beta                  98.6428
_cell_angle_gamma                 118.5144
loop_
_atom_site_label
_atom_site_type_symbol
_atom_site_fract_x
_atom_site_fract_y
_atom_site_fract_z
_atom_site_U_iso_or_equiv
_atom_site_adp_type
_atom_site_occupancy
Y0     Y     0.56207   0.46475   0.02167   0.00000  Uiso   1.00
Y1     Y     0.44169   0.54231   1.05588   0.00000  Uiso   1.00
C2     C     0.49108   0.65272   0.09249   0.00000  Uiso   1.00
C3     C     0.51833   0.49498   0.28708   0.00000  Uiso   1.00
C4     C     0.66721   0.51316   0.95143   0.00000  Uiso   1.00
C5     C     0.50879   0.36034   0.94433   0.00000  Uiso   1.00
C6     C     0.50024   0.53496   0.80043   0.00000  Uiso   1.00
C7     C     0.33250   0.49533   0.01138   0.00000  Uiso   1.00
O8     O     0.49477   0.63681   0.97157   0.00000  Uiso   1.00
O9     O     0.46314   0.61124   0.19860   0.00000  Uiso   1.00
O10    O     0.55462   0.48253   0.25929   0.00000  Uiso   1.00
O11    O     0.47500   0.48182   0.19823   0.00000  Uiso   1.00
O12    O     0.63259   0.52542   0.86363   0.00000  Uiso   1.00
O13    O     0.64806   0.47814   0.07872   0.00000  Uiso   1.00
O14    O     0.52960   0.36833   0.08201   0.00000  Uiso   1.00
O15    O     0.51173   0.40556   0.85173   0.00000  Uiso   1.00
O16    O     0.46746   0.55423   0.80620   0.00000  Uiso   1.00
O17    O     0.51305   0.51133   0.93315   0.00000  Uiso   1.00
O18    O     0.35707   0.51096   0.13898   0.00000  Uiso   1.00
O19    O     0.36417   0.50303   0.90937   0.00000  Uiso   1.00
Y20    Y     0.10248   0.55273  -0.00095   0.00000  Uiso   1.00
Y21    Y     0.89156   0.44082   0.98824   0.00000  Uiso   1.00
C22    C     0.83350   0.49964   0.93679   0.00000  Uiso   1.00
C23    C    -0.00607   0.49188   0.22089   0.00000  Uiso   1.00
C24    C     0.15732   0.66678   0.97129   0.00000  Uiso   1.00
C25    C     0.15959   0.49832  -0.01537   0.00000  Uiso   1.00
C26    C    -0.00752   0.49608   0.77337   0.00000  Uiso   1.00
C27    C     0.83166   0.32540   0.02899   0.00000  Uiso   1.00
O28    O     0.87040   0.51046   0.84779   0.00000  Uiso   1.00
O29    O     0.82776   0.45957   0.05511   0.00000  Uiso   1.00
O30    O     0.01841   0.50593   0.09369   0.00000  Uiso   1.00
O31    O     0.94234   0.46476   0.21365   0.00000  Uiso   1.00
O32    O     0.13353   0.64252   0.85381   0.00000  Uiso   1.00
O33    O     0.15064   0.63217   0.10386   0.00000  Uiso   1.00
O34    O     0.13605   0.51604  -0.13540   0.00000  Uiso   1.00
O35    O     0.15189   0.50660   1.11523   0.00000  Uiso   1.00
O36    O     0.94113   0.46684   0.77249   0.00000  Uiso   1.00
O37    O     0.01647   0.51141   0.90264   0.00000  Uiso   1.00
O38    O     0.87579   0.35017   0.10497   0.00000  Uiso   1.00
O39    O     0.81971   0.36017   0.92686   0.00000  Uiso   1.00
Y40    Y     0.54964   0.10800   0.02959   0.00000  Uiso   1.00
Y41    Y     0.43196   0.88763   1.13306   0.00000  Uiso   1.00
C42    C     0.32518   0.83650   1.05094   0.00000  Uiso   1.00
C43    C     0.48504  -0.00687   0.30456   0.00000  Uiso   1.00
C44    C     0.50531   0.17916   0.94114   0.00000  Uiso   1.00
C45    C     0.65759   0.15425   0.06166   0.00000  Uiso   1.00
C46    C     0.48747  -0.00564   0.86009   0.00000  Uiso   1.00
C47    C     0.48536   0.82641   0.13816   0.00000  Uiso   1.00
O48    O     0.35858   0.88505   0.97980   0.00000  Uiso   1.00
O49    O     0.34645   0.81550   0.16992   0.00000  Uiso   1.00
O50    O     0.49958   0.01855   0.16349   0.00000  Uiso   1.00
O51    O     0.45620   0.93871   0.32935   0.00000  Uiso   1.00
O52    O     0.51486   0.15687   0.84388   0.00000  Uiso   1.00
O53    O     0.51654   0.16263   0.08582   0.00000  Uiso   1.00
O54    O     0.62725   0.13712   0.17778   0.00000  Uiso   1.00
O55    O     0.63201   0.14537   0.92895   0.00000  Uiso   1.00
O56    O     0.45763   0.94040   0.88765   0.00000  Uiso   1.00
O57    O     0.50288   0.01914   0.97799   0.00000  Uiso   1.00
O58    O     0.44351   0.80752   0.21603   0.00000  Uiso   1.00
O59    O     0.50077   0.87752   1.06469   0.00000  Uiso   1.00
N60    N     0.49785   0.51057   0.53770   0.00000  Uiso   1.00
H61    H     0.61273   0.59102   0.35148   0.00000  Uiso   1.00
C62    C     0.53028   0.52769   0.41490   0.00000  Uiso   1.00
C63    C     0.58074   0.57271   0.43523   0.00000  Uiso   1.00
C64    C     0.52410   0.54325   0.64977   0.00000  Uiso   1.00
S65    S     0.58854   0.59623   0.60759   0.00000  Uiso   1.00
N66    N     0.99119   0.48591   0.50233   0.00000  Uiso   1.00
H67    H     0.10131   0.57567   0.67029   0.00000  Uiso   1.00
C68    C     0.01995   0.50930   0.62630   0.00000  Uiso   1.00
C69    C     0.07255   0.54949   0.59016   0.00000  Uiso   1.00
C70    C     0.02098   0.50667   0.37304   0.00000  Uiso   1.00
S71    S     0.08675   0.55704   0.39725   0.00000  Uiso   1.00
N72    N     0.48361   0.99087   0.58384   0.00000  Uiso   1.00
H73    H     0.54824   0.11234   0.33647   0.00000  Uiso   1.00
C74    C     0.50012   0.02217   0.44003   0.00000  Uiso   1.00
C75    C     0.53135   0.07992   0.44085   0.00000  Uiso   1.00
C76    C     0.50158   0.02316   0.69554   0.00000  Uiso   1.00
S77    S     0.54079   0.09510   0.62831   0.00000  Uiso   1.00
N78    N     0.24451   0.49082   0.04135   0.00000  Uiso   1.00
H79    H     0.26437   0.42869   0.79001   0.00000  Uiso   1.00
C80    C     0.27383   0.47372  -0.02133   0.00000  Uiso   1.00
C81    C     0.24646   0.44382   0.85836   0.00000  Uiso   1.00
C82    C     0.19485   0.47395  -0.03192   0.00000  Uiso   1.00
S83    S     0.18251   0.43696   0.81895   0.00000  Uiso   1.00
N84    N     0.74440   0.24004   0.00604   0.00000  Uiso   1.00
H85    H     0.84566   0.23743   0.25133   0.00000  Uiso   1.00
C86    C     0.79575   0.26326   0.06508   0.00000  Uiso   1.00
C87    C     0.80714   0.22571   0.18451   0.00000  Uiso   1.00
C88    C     0.71673   0.18500   0.08007   0.00000  Uiso   1.00
S89    S     0.75227   0.15983   0.22804   0.00000  Uiso   1.00
N90    N     0.75186   0.50613   0.97523   0.00000  Uiso   1.00
H91    H     0.83881   0.59393  -0.30295   0.00000  Uiso   1.00
C92    C     0.79823   0.52768   0.90058   0.00000  Uiso   1.00
C93    C     0.80467   0.57231  -0.22597   0.00000  Uiso   1.00
C94    C     0.72281   0.53397   0.90576   0.00000  Uiso   1.00
S95    S     0.75124   0.58780  -0.25522   0.00000  Uiso   1.00
N96    N     0.23832   0.74932   1.04615   0.00000  Uiso   1.00
H97    H     0.26591   0.87199   0.79607   0.00000  Uiso   1.00
C98    C     0.26883   0.80560   0.99249   0.00000  Uiso   1.00
C99    C     0.24621   0.82789   0.85944   0.00000  Uiso   1.00
C100   C     0.19272   0.72863   0.95377   0.00000  Uiso   1.00
S101   S     0.18563   0.77741   0.79606   0.00000  Uiso   1.00
N102   N     0.48572   0.73417   0.15395   0.00000  Uiso   1.00
H103   H     0.58456   0.86065   0.00819   0.00000  Uiso   1.00
C104   C     0.51125   0.79186   0.12228   0.00000  Uiso   1.00
C105   C     0.55927   0.81503   0.04667   0.00000  Uiso   1.00
C106   C     0.51419   0.71356   0.10060   0.00000  Uiso   1.00
S107   S     0.57285   0.76428   1.00772   0.00000  Uiso   1.00
N108   N     0.49921   0.26321   0.97648   0.00000  Uiso   1.00
H109   H     0.46242   0.33021   0.64759   0.00000  Uiso   1.00
C110   C     0.48880   0.30581   0.89112   0.00000  Uiso   1.00
C111   C     0.46927   0.29855   0.73775   0.00000  Uiso   1.00
C112   C     0.48735   0.22352   0.88855   0.00000  Uiso   1.00
S113   S     0.46336   0.23713   0.69701   0.00000  Uiso   1.00
loop_
_geom_bond_atom_site_label_1
_geom_bond_atom_site_label_2
_geom_bond_distance
_geom_bond_site_symmetry_2
_ccdc_geom_bond_type
Y0     O10     2.279   .     S
Y0     O13     2.255   .     S
Y0     O14     2.259   .     S
Y0     O12     2.259   1_554 S
Y0     O15     2.249   1_554 S
Y0     O17     2.219   1_554 S
Y1     O8      2.249   .     S
Y1     O16     2.280   .     S
Y1     O19     2.252   .     S
Y1     O9      2.271   1_556 S
Y1     O11     2.279   1_556 S
Y1     O18     2.273   1_556 S
C2     O9      1.262   .     A
C2     C106    1.465   .     S
C2     O8      1.257   1_554 A
C3     O10     1.283   .     A
C3     O11     1.277   .     A
C3     C62     1.479   .     S
C4     O12     1.262   .     A
C4     C94     1.464   .     S
C4     O13     1.259   1_556 A
C5     O15     1.261   .     A
C5     C110    1.467   .     S
C5     O14     1.264   1_556 A
C6     O16     1.265   .     A
C6     O17     1.263   .     A
C6     C64     1.474   .     S
C7     O18     1.260   .     A
C7     C80     1.466   .     S
C7     O19     1.257   1_554 A
O8     C2      1.257   1_556 A
O9     Y1      2.271   1_554 S
O11    Y1      2.279   1_554 S
O12    Y0      2.259   1_556 S
O13    C4      1.259   1_554 A
O14    C5      1.264   1_554 A
O15    Y0      2.249   1_556 S
O17    Y0      2.219   1_556 S
O18    Y1      2.273   1_554 S
O19    C7      1.257   1_556 A
Y20    O30     2.250   .     S
Y20    O33     2.246   .     S
Y20    O34     2.234   .     S
Y20    O32     2.249   1_554 S
Y20    O35     2.259   1_554 S
Y20    O37     2.243   1_554 S
Y21    O28     2.260   .     S
Y21    O36     2.263   .     S
Y21    O39     2.264   .     S
Y21    O29     2.260   1_556 S
Y21    O31     2.267   1_556 S
Y21    O38     2.261   1_556 S
C22    O28     1.261   .     A
C22    C92     1.468   .     S
C22    O29     1.262   1_556 A
C23    O30     1.266   .     A
C23    C70     1.459   .     S
C23    O31     1.271   1_455 A
C24    O32     1.267   .     A
C24    C100    1.462   .     S
C24    O33     1.266   1_556 A
C25    O34     1.264   .     A
C25    C82     1.463   .     S
C25    O35     1.270   1_554 A
C26    O37     1.266   .     A
C26    C68     1.467   .     S
C26    O36     1.269   1_455 A
C27    O38     1.260   .     A
C27    C86     1.468   .     S
C27    O39     1.259   1_554 A
O29    Y21     2.260   1_554 S
O29    C22     1.262   1_554 A
O31    Y21     2.267   1_554 S
O31    C23     1.271   1_655 A
O32    Y20     2.249   1_556 S
O33    C24     1.266   1_554 A
O35    Y20     2.259   1_556 S
O35    C25     1.270   1_556 A
O36    C26     1.269   1_655 A
O37    Y20     2.243   1_556 S
O38    Y21     2.261   1_554 S
O39    C27     1.259   1_556 A
Y40    O50     2.247   .     S
Y40    O53     2.249   .     S
Y40    O54     2.238   .     S
Y40    O52     2.238   1_554 S
Y40    O55     2.251   1_554 S
Y40    O57     2.238   1_554 S
Y41    O48     2.254   .     S
Y41    O56     2.253   .     S
Y41    O59     2.251   .     S
Y41    O49     2.262   1_556 S
Y41    O51     2.265   1_556 S
Y41    O58     2.269   1_556 S
C42    O48     1.259   .     A
C42    C98     1.467   .     S
C42    O49     1.262   1_556 A
C43    O50     1.267   .     A
C43    C74     1.463   .     S
C43    O51     1.274   1_545 A
C44    O52     1.267   .     A
C44    C112    1.462   .     S
C44    O53     1.269   1_556 A
C45    O54     1.266   .     A
C45    C88     1.461   .     S
C45    O55     1.269   1_554 A
C46    O57     1.262   .     A
C46    C76     1.459   .     S
C46    O56     1.268   1_545 A
C47    O58     1.261   .     A
C47    C104    1.467   .     S
C47    O59     1.259   1_554 A
O49    Y41     2.262   1_554 S
O49    C42     1.262   1_554 A
O51    Y41     2.265   1_554 S
O51    C43     1.274   1_565 A
O52    Y40     2.238   1_556 S
O53    C44     1.269   1_554 A
O55    Y40     2.251   1_556 S
O55    C45     1.269   1_556 A
O56    C46     1.268   1_565 A
O57    Y40     2.238   1_556 S
O58    Y41     2.269   1_554 S
O59    C47     1.259   1_556 A
N60    C62     1.349   .     A
N60    C64     1.355   .     A
H61    C63     1.083   .     S
C62    C63     1.377   .     A
C63    S65     1.702   .     A
C64    S65     1.710   .     A
N66    C68     1.333   1_655 A
N66    C70     1.339   1_655 A
H67    C69     1.074   .     S
C68    C69     1.377   .     A
C68    N66     1.333   1_455 A
C69    S71     1.715   .     A
C70    S71     1.709   .     A
C70    N66     1.339   1_455 A
N72    C74     1.330   1_565 A
N72    C76     1.336   1_565 A
H73    C75     1.076   .     S
C74    C75     1.377   .     A
C74    N72     1.330   1_545 A
C75    S77     1.718   .     A
C76    S77     1.711   .     A
C76    N72     1.336   1_545 A
N78    C80     1.341   .     A
N78    C82     1.347   .     A
H79    C81     1.081   .     S
C80    C81     1.377   1_554 A
C81    S83     1.701   .     A
C81    C80     1.377   1_556 A
C82    S83     1.713   1_554 A
S83    C82     1.713   1_556 A
N84    C86     1.341   .     A
N84    C88     1.345   .     A
H85    C87     1.084   .     S
C86    C87     1.379   .     A
C87    S89     1.706   .     A
C88    S89     1.713   .     A
N90    C92     1.340   .     A
N90    C94     1.345   .     A
H91    C93     1.082   .     S
C92    C93     1.378   1_556 A
C93    S95     1.708   .     A
C93    C92     1.378   1_554 A
C94    S95     1.714   1_556 A
S95    C94     1.714   1_554 A
N96    C98     1.339   .     A
N96    C100    1.346   .     A
H97    C99     1.082   .     S
C98    C99     1.378   .     A
C99    S101    1.706   .     A
C100   S101    1.714   .     A
N102   C104    1.342   .     A
N102   C106    1.348   .     A
H103   C105    1.082   .     S
C104   C105    1.377   .     A
C105   S107    1.701   1_554 A
C106   S107    1.715   1_554 A
S107   C105    1.701   1_556 A
S107   C106    1.715   1_556 A
N108   C110    1.341   .     A
N108   C112    1.346   .     A
H109   C111    1.080   .     S
C110   C111    1.379   .     A
C111   S113    1.703   .     A
C112   S113    1.714   .     A
