data_kag+N205+E9
_audit_creation_date              2025-01-21
_audit_creation_method            'Materials Studio'
_symmetry_space_group_name_H-M    'P1'
_symmetry_Int_Tables_number       1
_symmetry_cell_setting            triclinic
loop_
_symmetry_equiv_pos_as_xyz
  x,y,z
_cell_length_a                    45.0036
_cell_length_b                    44.3032
_cell_length_c                    17.4502
_cell_angle_alpha                 98.1178
_cell_angle_beta                  112.8599
_cell_angle_gamma                 118.9438
loop_
_atom_site_label
_atom_site_type_symbol
_atom_site_fract_x
_atom_site_fract_y
_atom_site_fract_z
_atom_site_U_iso_or_equiv
_atom_site_adp_type
_atom_site_occupancy
Y0     Y     0.55110   0.49083  -0.00121   0.00000  Uiso   1.00
Y1     Y     0.45859   0.51586   1.00307   0.00000  Uiso   1.00
C2     C     0.49874   0.59130   0.05838   0.00000  Uiso   1.00
C3     C     0.52397   0.50666   0.12726   0.00000  Uiso   1.00
C4     C     0.62201   0.52316   1.01064   0.00000  Uiso   1.00
C5     C     0.51112   0.41536   0.94368   0.00000  Uiso   1.00
C6     C     0.48584   0.50022   0.87477   0.00000  Uiso   1.00
C7     C     0.38759   0.48381  -0.00939   0.00000  Uiso   1.00
O8     O     0.47622   0.56804   0.97645   0.00000  Uiso   1.00
O9     O     0.50166   0.57574   0.11362   0.00000  Uiso   1.00
O10    O     0.55431   0.51026   0.13036   0.00000  Uiso   1.00
O11    O     0.49263   0.49147   0.04989   0.00000  Uiso   1.00
O12    O     0.59003   0.51131   0.93930   0.00000  Uiso   1.00
O13    O     0.61777   0.52042   0.07720   0.00000  Uiso   1.00
O14    O     0.53355   0.43867   0.02553   0.00000  Uiso   1.00
O15    O     0.50813   0.43087   0.88834   0.00000  Uiso   1.00
O16    O     0.45549   0.49659   0.87167   0.00000  Uiso   1.00
O17    O     0.51716   0.51534   0.95215   0.00000  Uiso   1.00
O18    O     0.41949   0.49569   0.06224   0.00000  Uiso   1.00
O19    O     0.39192   0.48629   0.92407   0.00000  Uiso   1.00
Y20    Y     0.06941   0.54978   0.02606   0.00000  Uiso   1.00
Y21    Y     0.93920   0.45642   0.97436   0.00000  Uiso   1.00
C22    C     0.90567   0.49171   0.98880   0.00000  Uiso   1.00
C23    C     0.02994   0.51864   0.13430   0.00000  Uiso   1.00
C24    C     0.10793   0.61834   1.02281   0.00000  Uiso   1.00
C25    C     0.10331   0.51489   0.01121   0.00000  Uiso   1.00
C26    C    -0.02161   0.48709   0.86584   0.00000  Uiso   1.00
C27    C     0.90023   0.38798  -0.02216   0.00000  Uiso   1.00
O28    O     0.89529   0.46981   0.91424   0.00000  Uiso   1.00
O29    O     0.93454   0.49658   0.05641   0.00000  Uiso   1.00
O30    O     0.06106   0.54769   0.14568   0.00000  Uiso   1.00
O31    O     1.00645   0.49033   0.05794   0.00000  Uiso   1.00
O32    O     0.07797   0.58865   0.95325   0.00000  Uiso   1.00
O33    O     0.11684   0.61306   0.09516   0.00000  Uiso   1.00
O34    O     0.11299   0.53598   0.08594   0.00000  Uiso   1.00
O35    O     0.07498   0.51067   0.94350   0.00000  Uiso   1.00
O36    O     0.94699   0.45830   0.85408   0.00000  Uiso   1.00
O37    O     0.00210   0.51511   0.94273   0.00000  Uiso   1.00
O38    O     0.92890   0.41800   0.04788   0.00000  Uiso   1.00
O39    O     0.89285   0.39291   0.90511   0.00000  Uiso   1.00
Y40    Y     0.53016   0.06568  -0.00497   0.00000  Uiso   1.00
Y41    Y     0.47867   0.94063   1.00699   0.00000  Uiso   1.00
C42    C     0.40751   0.90718   0.99413   0.00000  Uiso   1.00
C43    C     0.52703   0.02861   0.13406   0.00000  Uiso   1.00
C44    C     0.49746   0.10251   0.94745   0.00000  Uiso   1.00
C45    C     0.60149   0.09916   0.00856   0.00000  Uiso   1.00
C46    C     0.48137  -0.02235   0.86757   0.00000  Uiso   1.00
C47    C     0.51145   0.90376   0.05405   0.00000  Uiso   1.00
O48    O     0.41148   0.89872   0.92847   0.00000  Uiso   1.00
O49    O     0.44002   0.93438   0.06495   0.00000  Uiso   1.00
O50    O     0.53576   0.05951   0.12607   0.00000  Uiso   1.00
O51    O     0.52262   1.00412   0.07432   0.00000  Uiso   1.00
O52    O     0.49430   0.07846   0.89044   0.00000  Uiso   1.00
O53    O     0.51629   0.10649   0.02801   0.00000  Uiso   1.00
O54    O     0.59740   0.10754   0.07405   0.00000  Uiso   1.00
O55    O     0.56900   0.07199   0.93758   0.00000  Uiso   1.00
O56    O     0.47268   0.94676   0.87565   0.00000  Uiso   1.00
O57    O     0.48584   0.00219   0.92733   0.00000  Uiso   1.00
O58    O     0.51440   0.92759   0.11116   0.00000  Uiso   1.00
O59    O     0.49285   0.90009   0.97369   0.00000  Uiso   1.00
C60    C     0.51692   0.51614   0.35837   0.00000  Uiso   1.00
N61    N     0.55146   0.52554   0.36402   0.00000  Uiso   1.00
N62    N     0.55489   0.52551   0.29160   0.00000  Uiso   1.00
C63    C     0.52400   0.51625   0.21106   0.00000  Uiso   1.00
N64    N     0.48998   0.50808   0.20638   0.00000  Uiso   1.00
N65    N     0.48656   0.50822   0.27883   0.00000  Uiso   1.00
C66    C     0.51098   0.51066   0.43345   0.00000  Uiso   1.00
N67    N     0.47536   0.49848   0.42521   0.00000  Uiso   1.00
N68    N     0.46918   0.49143   0.49133   0.00000  Uiso   1.00
C69    C     0.49824   0.49589   0.56760   0.00000  Uiso   1.00
N70    N     0.53383   0.50802   0.57577   0.00000  Uiso   1.00
N71    N     0.54000   0.51508   0.50967   0.00000  Uiso   1.00
C72    C     0.49250   0.49064   0.64302   0.00000  Uiso   1.00
N73    N     0.52304   0.49881   0.72257   0.00000  Uiso   1.00
N74    N     0.51982   0.49911   0.79529   0.00000  Uiso   1.00
C75    C     0.48582   0.49083   0.79090   0.00000  Uiso   1.00
N76    N     0.45478   0.48140   0.71042   0.00000  Uiso   1.00
N77    N     0.45802   0.48122   0.63772   0.00000  Uiso   1.00
C78    C    -0.00406   0.49362   0.64901   0.00000  Uiso   1.00
N79    N     0.96348   0.46197   0.63725   0.00000  Uiso   1.00
N80    N     0.95861   0.45922   0.70722   0.00000  Uiso   1.00
C81    C    -0.01392   0.48797   0.79145   0.00000  Uiso   1.00
N82    N     0.01856   0.51935   0.80299   0.00000  Uiso   1.00
N83    N     0.02353   0.52210   0.73331   0.00000  Uiso   1.00
C84    C     0.00046   0.49794   0.57164   0.00000  Uiso   1.00
N85    N     0.03295   0.52991   0.58451   0.00000  Uiso   1.00
N86    N     0.03669   0.53456   0.51423   0.00000  Uiso   1.00
C87    C     0.00796   0.50745   0.42842   0.00000  Uiso   1.00
N88    N     0.97551   0.47545   0.41558   0.00000  Uiso   1.00
N89    N     0.97176   0.47080   0.48587   0.00000  Uiso   1.00
C90    C     0.01235   0.51192   0.35093   0.00000  Uiso   1.00
N91    N     0.98471   0.48353   0.26652   0.00000  Uiso   1.00
N92    N     0.98968   0.48639   0.19688   0.00000  Uiso   1.00
C93    C     0.02216   0.51781   0.20853   0.00000  Uiso   1.00
N94    N     0.04962   0.54651   0.29280   0.00000  Uiso   1.00
N95    N     0.04477   0.54364   0.36275   0.00000  Uiso   1.00
C96    C     0.51338   0.01298   0.35268   0.00000  Uiso   1.00
N97    N     0.51889   0.04369   0.33592   0.00000  Uiso   1.00
N98    N     0.52279   0.04824   0.26571   0.00000  Uiso   1.00
C99    C     0.52123   0.02225   0.20932   0.00000  Uiso   1.00
N100   N     0.51614   0.99171   0.22657   0.00000  Uiso   1.00
N101   N     0.51211   0.98709   0.29674   0.00000  Uiso   1.00
C102   C     0.50884   0.00795   0.43005   0.00000  Uiso   1.00
N103   N     0.50084   0.97616   0.44381   0.00000  Uiso   1.00
N104   N     0.49653   0.97151   0.51356   0.00000  Uiso   1.00
C105   C     0.50001  -0.00152   0.57218   0.00000  Uiso   1.00
N106   N     0.50807   0.03030   0.55851   0.00000  Uiso   1.00
N107   N     0.51239   0.03495   0.48877   0.00000  Uiso   1.00
C108   C     0.49521  -0.00667   0.64919   0.00000  Uiso   1.00
N109   N     0.49627   0.01914   0.70481   0.00000  Uiso   1.00
N110   N     0.49214   0.01448   0.77485   0.00000  Uiso   1.00
C111   C     0.48712  -0.01602   0.79224   0.00000  Uiso   1.00
N112   N     0.48570   0.95805   0.73607   0.00000  Uiso   1.00
N113   N     0.48972   0.96264   0.66600   0.00000  Uiso   1.00
C114   C     0.28507   0.46042  -0.01487   0.00000  Uiso   1.00
N115   N     0.28562   0.45531  -0.09273   0.00000  Uiso   1.00
N116   N     0.31768   0.46098  -0.09176   0.00000  Uiso   1.00
C117   C     0.35029   0.47177  -0.01298   0.00000  Uiso   1.00
N118   N     0.34948   0.47614   0.06460   0.00000  Uiso   1.00
N119   N     0.31744   0.47058   0.06367   0.00000  Uiso   1.00
C120   C     0.25223   0.45958  -0.01364   0.00000  Uiso   1.00
N121   N     0.25497   0.47118   0.06664   0.00000  Uiso   1.00
N122   N     0.22782   0.47515   0.06918   0.00000  Uiso   1.00
C123   C     0.19688   0.46762  -0.00849   0.00000  Uiso   1.00
N124   N     0.19365   0.45525  -0.08902   0.00000  Uiso   1.00
N125   N     0.22088   0.45138  -0.09151   0.00000  Uiso   1.00
C126   C     0.16969   0.47619  -0.00437   0.00000  Uiso   1.00
N127   N     0.13963   0.47011  -0.08155   0.00000  Uiso   1.00
N128   N     0.11738   0.48121  -0.07710   0.00000  Uiso   1.00
C129   C     0.12450   0.49886   0.00477   0.00000  Uiso   1.00
N130   N     0.15422   0.50453   0.08179   0.00000  Uiso   1.00
N131   N     0.17639   0.49337   0.07735   0.00000  Uiso   1.00
C132   C     0.82693   0.28795  -0.00796   0.00000  Uiso   1.00
N133   N     0.82029   0.28903   0.90990   0.00000  Uiso   1.00
N134   N     0.84457   0.32051   0.90497   0.00000  Uiso   1.00
C135   C     0.87644   0.35191  -0.01795   0.00000  Uiso   1.00
N136   N     0.88348   0.35057   0.06403   0.00000  Uiso   1.00
N137   N     0.85915   0.31919   0.06894   0.00000  Uiso   1.00
C138   C     0.79770   0.25510  -0.00199   0.00000  Uiso   1.00
N139   N     0.80103   0.25692   0.07956   0.00000  Uiso   1.00
N140   N     0.77246   0.22881   0.08437   0.00000  Uiso   1.00
C141   C     0.73961   0.19772   0.00782   0.00000  Uiso   1.00
N142   N     0.73660   0.19562   0.92644   0.00000  Uiso   1.00
N143   N     0.76508   0.22382   0.92157   0.00000  Uiso   1.00
C144   C     0.70592   0.16889   0.01144   0.00000  Uiso   1.00
N145   N     0.67272   0.13831   0.93429   0.00000  Uiso   1.00
N146   N     0.64006   0.11475   0.93465   0.00000  Uiso   1.00
C147   C     0.63936   0.12094   0.01213   0.00000  Uiso   1.00
N148   N     0.67283   0.15102   0.08981   0.00000  Uiso   1.00
N149   N     0.70557   0.17451   0.08955   0.00000  Uiso   1.00
C150   C     0.83973   0.53093   1.00473   0.00000  Uiso   1.00
N151   N     0.87026   0.53761   1.08192   0.00000  Uiso   1.00
N152   N     0.89240   0.52635   1.07733   0.00000  Uiso   1.00
C153   C     0.88465   0.50794   0.99533   0.00000  Uiso   1.00
N154   N     0.85444   0.50165   0.91833   0.00000  Uiso   1.00
N155   N     0.83241   0.51298   0.92291   0.00000  Uiso   1.00
C156   C     0.81258   0.53954   1.00887   0.00000  Uiso   1.00
N157   N     0.78110   0.53108   0.93094   0.00000  Uiso   1.00
N158   N     0.75390   0.53500   0.93336   0.00000  Uiso   1.00
C159   C     0.75714   0.54747   1.01383   0.00000  Uiso   1.00
N160   N     0.78901   0.55655   1.09196   0.00000  Uiso   1.00
N161   N     0.81629   0.55273   1.08955   0.00000  Uiso   1.00
C162   C     0.72437   0.54674   1.01520   0.00000  Uiso   1.00
N163   N     0.72431   0.55278   1.09358   0.00000  Uiso   1.00
N164   N     0.69228   0.54712   1.09285   0.00000  Uiso   1.00
C165   C     0.65926   0.53545   1.01381   0.00000  Uiso   1.00
N166   N     0.65963   0.53026   0.93575   0.00000  Uiso   1.00
N167   N     0.69160   0.53578   0.93641   0.00000  Uiso   1.00
C168   C     0.30345   0.83705   0.99185   0.00000  Uiso   1.00
N169   N     0.33663   0.86758   0.06909   0.00000  Uiso   1.00
N170   N     0.36920   0.89132   0.06860   0.00000  Uiso   1.00
C171   C     0.36977   0.88534   0.99090   0.00000  Uiso   1.00
N172   N     0.33631   0.85529   0.91322   0.00000  Uiso   1.00
N173   N     0.30368   0.83165   0.91360   0.00000  Uiso   1.00
C174   C     0.26967   0.80822   0.99504   0.00000  Uiso   1.00
N175   N     0.23662   0.77750   0.91797   0.00000  Uiso   1.00
N176   N     0.20765   0.74949   0.92197   0.00000  Uiso   1.00
C177   C     0.21075   0.75109   1.00323   0.00000  Uiso   1.00
N178   N     0.24362   0.78197   0.08022   0.00000  Uiso   1.00
N179   N     0.27251   0.81006   0.07616   0.00000  Uiso   1.00
C180   C     0.18115   0.71831   1.00853   0.00000  Uiso   1.00
N181   N     0.18757   0.71726   0.09056   0.00000  Uiso   1.00
N182   N     0.16325   0.68579   0.09538   0.00000  Uiso   1.00
C183   C     0.13153   0.65437   1.01831   0.00000  Uiso   1.00
N184   N     0.12463   0.65565   0.93633   0.00000  Uiso   1.00
N185   N     0.14904   0.68703   0.93152   0.00000  Uiso   1.00
C186   C     0.54341   0.83151   0.10713   0.00000  Uiso   1.00
N187   N     0.54414   0.85316   0.17233   0.00000  Uiso   1.00
N188   N     0.53567   0.87756   0.15730   0.00000  Uiso   1.00
C189   C     0.52596   0.88095   0.07644   0.00000  Uiso   1.00
N190   N     0.52575   0.85966   1.01203   0.00000  Uiso   1.00
N191   N     0.53448   0.83556   1.02726   0.00000  Uiso   1.00
C192   C     0.54844   0.80162   0.11764   0.00000  Uiso   1.00
N193   N     0.54853   0.78159   1.05149   0.00000  Uiso   1.00
N194   N     0.54815   0.75151   1.05329   0.00000  Uiso   1.00
C195   C     0.54765   0.74015   0.12127   0.00000  Uiso   1.00
N196   N     0.54848   0.76065   0.18892   0.00000  Uiso   1.00
N197   N     0.54892   0.79091   0.18718   0.00000  Uiso   1.00
C198   C     0.54083   0.70356   0.11331   0.00000  Uiso   1.00
N199   N     0.53849   0.68988   0.17743   0.00000  Uiso   1.00
N200   N     0.52717   0.65458   0.16279   0.00000  Uiso   1.00
C201   C     0.51756   0.63177   0.08330   0.00000  Uiso   1.00
N202   N     0.52053   0.64571   1.02025   0.00000  Uiso   1.00
N203   N     0.53213   0.68092   1.03514   0.00000  Uiso   1.00
C204   C     0.46913   0.30314   0.88911   0.00000  Uiso   1.00
N205   N     0.47876   0.32608  -0.03181   0.00000  Uiso   1.00
N206   N     0.49036   0.36128  -0.01697   0.00000  Uiso   1.00
C207   C     0.49243   0.37492   0.91908   0.00000  Uiso   1.00
N208   N     0.48189   0.35181   0.83871   0.00000  Uiso   1.00
N209   N     0.47056   0.31650   0.82409   0.00000  Uiso   1.00
C210   C     0.46222   0.26651   0.88093   0.00000  Uiso   1.00
N211   N     0.46118   0.24594   0.81301   0.00000  Uiso   1.00
N212   N     0.46056   0.21557   0.81447   0.00000  Uiso   1.00
C213   C     0.46101   0.20483   0.88394   0.00000  Uiso   1.00
N214   N     0.46120   0.22500  -0.04954   0.00000  Uiso   1.00
N215   N     0.46180   0.25519  -0.05102   0.00000  Uiso   1.00
C216   C     0.46570   0.17476   0.89402   0.00000  Uiso   1.00
N217   N     0.47414   0.17044  -0.02651   0.00000  Uiso   1.00
N218   N     0.48275   0.14628  -0.01126   0.00000  Uiso   1.00
C219   C     0.48290   0.12522   0.92473   0.00000  Uiso   1.00
N220   N     0.47360   0.12882   0.84417   0.00000  Uiso   1.00
N221   N     0.46525   0.15328   0.82912   0.00000  Uiso   1.00
loop_
_geom_bond_atom_site_label_1
_geom_bond_atom_site_label_2
_geom_bond_distance
_geom_bond_site_symmetry_2
_ccdc_geom_bond_type
Y0     O10     2.258   .     S
Y0     O13     2.256   .     S
Y0     O14     2.237   .     S
Y0     O12     2.261   1_554 S
Y0     O15     2.280   1_554 S
Y0     O17     2.250   1_554 S
Y1     O8      2.237   .     S
Y1     O16     2.256   .     S
Y1     O19     2.256   .     S
Y1     O9      2.278   1_556 S
Y1     O11     2.250   1_556 S
Y1     O18     2.260   1_556 S
C2     O9      1.264   .     A
C2     C201    1.465   .     S
C2     O8      1.257   1_554 A
C3     O10     1.274   .     A
C3     O11     1.269   .     A
C3     C63     1.463   .     S
C4     O12     1.260   .     A
C4     C165    1.465   .     S
C4     O13     1.261   1_556 A
C5     O15     1.264   .     A
C5     C207    1.465   .     S
C5     O14     1.257   1_556 A
C6     O16     1.274   .     A
C6     O17     1.269   .     A
C6     C75     1.463   .     S
C7     O18     1.261   .     A
C7     C117    1.465   .     S
C7     O19     1.261   1_554 A
O8     C2      1.257   1_556 A
O9     Y1      2.278   1_554 S
O11    Y1      2.250   1_554 S
O12    Y0      2.261   1_556 S
O13    C4      1.261   1_554 A
O14    C5      1.257   1_554 A
O15    Y0      2.280   1_556 S
O17    Y0      2.250   1_556 S
O18    Y1      2.260   1_554 S
O19    C7      1.261   1_556 A
Y20    O30     2.266   .     S
Y20    O33     2.263   .     S
Y20    O34     2.250   .     S
Y20    O32     2.255   1_554 S
Y20    O35     2.267   1_554 S
Y20    O37     2.257   1_554 S
Y21    O28     2.249   .     S
Y21    O36     2.265   .     S
Y21    O39     2.265   .     S
Y21    O29     2.266   1_556 S
Y21    O31     2.257   1_556 S
Y21    O38     2.252   1_556 S
C22    O28     1.259   .     A
C22    C153    1.464   .     S
C22    O29     1.262   1_556 A
C23    O30     1.275   .     A
C23    C93     1.468   .     S
C23    O31     1.271   1_455 A
C24    O32     1.258   .     A
C24    C183    1.463   .     S
C24    O33     1.261   1_556 A
C25    O34     1.259   .     A
C25    C129    1.464   .     S
C25    O35     1.262   1_554 A
C26    O37     1.271   .     A
C26    C81     1.469   .     S
C26    O36     1.274   1_455 A
C27    O38     1.258   .     A
C27    C135    1.464   .     S
C27    O39     1.261   1_554 A
O29    Y21     2.266   1_554 S
O29    C22     1.262   1_554 A
O31    Y21     2.257   1_554 S
O31    C23     1.271   1_655 A
O32    Y20     2.255   1_556 S
O33    C24     1.261   1_554 A
O35    Y20     2.267   1_556 S
O35    C25     1.262   1_556 A
O36    C26     1.274   1_655 A
O37    Y20     2.257   1_556 S
O38    Y21     2.252   1_554 S
O39    C27     1.261   1_556 A
Y40    O50     2.272   .     S
Y40    O53     2.251   .     S
Y40    O54     2.259   .     S
Y40    O52     2.268   1_554 S
Y40    O55     2.260   1_554 S
Y40    O57     2.255   1_554 S
Y41    O48     2.257   .     S
Y41    O56     2.273   .     S
Y41    O59     2.253   .     S
Y41    O49     2.259   1_556 S
Y41    O51     2.254   1_556 S
Y41    O58     2.269   1_556 S
C42    O48     1.260   .     A
C42    C171    1.464   .     S
C42    O49     1.260   1_556 A
C43    O50     1.274   .     A
C43    C99     1.474   .     S
C43    O51     1.271   1_545 A
C44    O52     1.261   .     A
C44    C219    1.465   .     S
C44    O53     1.259   1_556 A
C45    O54     1.260   .     A
C45    C147    1.465   .     S
C45    O55     1.261   1_554 A
C46    O57     1.271   .     A
C46    C111    1.474   .     S
C46    O56     1.274   1_545 A
C47    O58     1.261   .     A
C47    C189    1.467   .     S
C47    O59     1.259   1_554 A
O49    Y41     2.259   1_554 S
O49    C42     1.260   1_554 A
O51    Y41     2.254   1_554 S
O51    C43     1.271   1_565 A
O52    Y40     2.268   1_556 S
O53    C44     1.259   1_554 A
O55    Y40     2.260   1_556 S
O55    C45     1.261   1_556 A
O56    C46     1.274   1_565 A
O57    Y40     2.255   1_556 S
O58    Y41     2.269   1_554 S
O59    C47     1.259   1_556 A
C60    N61     1.357   .     A
C60    N65     1.357   .     A
C60    C66     1.465   .     S
N61    N62     1.331   .     A
N62    C63     1.358   .     A
C63    N64     1.356   .     A
N64    N65     1.331   .     A
C66    N67     1.358   .     A
C66    N71     1.357   .     A
N67    N68     1.332   .     A
N68    C69     1.358   .     A
C69    N70     1.357   .     A
C69    C72     1.465   .     S
N70    N71     1.331   .     A
C72    N73     1.357   .     A
C72    N77     1.357   .     A
N73    N74     1.331   .     A
N74    C75     1.356   .     A
C75    N76     1.358   .     A
N76    N77     1.331   .     A
C78    N83     1.356   .     A
C78    C84     1.466   .     S
C78    N79     1.358   1_455 A
N79    N80     1.333   .     A
N79    C78     1.358   1_655 A
N80    C81     1.359   1_655 A
C81    N82     1.355   .     A
C81    N80     1.359   1_455 A
N82    N83     1.331   .     A
C84    N85     1.358   .     A
C84    N89     1.357   1_455 A
N85    N86     1.332   .     A
N86    C87     1.357   .     A
C87    C90     1.467   .     S
C87    N88     1.358   1_455 A
N88    N89     1.332   .     A
N88    C87     1.358   1_655 A
N89    C84     1.357   1_655 A
C90    N95     1.359   .     A
C90    N91     1.356   1_455 A
N91    N92     1.330   .     A
N91    C90     1.356   1_655 A
N92    C93     1.355   1_655 A
C93    N94     1.358   .     A
C93    N92     1.355   1_455 A
N94    N95     1.333   .     A
C96    N97     1.356   .     A
C96    C102    1.473   .     S
C96    N101    1.360   1_545 A
N97    N98     1.332   .     A
N98    C99     1.359   .     A
C99    N100    1.357   1_545 A
N100   N101    1.335   .     A
N100   C99     1.357   1_565 A
N101   C96     1.360   1_565 A
C102   N107    1.359   .     A
C102   N103    1.358   1_545 A
N103   N104    1.333   .     A
N103   C102    1.358   1_565 A
N104   C105    1.359   1_565 A
C105   N106    1.358   .     A
C105   C108    1.473   .     S
C105   N104    1.359   1_545 A
N106   N107    1.333   .     A
C108   N109    1.360   .     A
C108   N113    1.356   1_545 A
N109   N110    1.335   .     A
N110   C111    1.357   .     A
C111   N112    1.359   1_545 A
N112   N113    1.332   .     A
N112   C111    1.359   1_565 A
N113   C108    1.356   1_565 A
C114   N115    1.357   .     A
C114   N119    1.358   .     A
C114   C120    1.469   .     S
N115   N116    1.332   .     A
N116   C117    1.357   .     A
C117   N118    1.357   .     A
N118   N119    1.333   .     A
C120   N121    1.358   .     A
C120   N125    1.358   .     A
N121   N122    1.332   .     A
N122   C123    1.358   .     A
C123   N124    1.358   .     A
C123   C126    1.468   .     S
N124   N125    1.332   .     A
C126   N127    1.359   .     A
C126   N131    1.357   .     A
N127   N128    1.333   .     A
N128   C129    1.357   .     A
C129   N130    1.357   .     A
N130   N131    1.331   .     A
C132   N137    1.357   .     A
C132   C138    1.468   .     S
C132   N133    1.359   1_554 A
N133   N134    1.334   .     A
N133   C132    1.359   1_556 A
N134   C135    1.358   1_556 A
C135   N136    1.357   .     A
C135   N134    1.358   1_554 A
N136   N137    1.331   .     A
C138   N139    1.358   .     A
C138   N143    1.357   1_554 A
N139   N140    1.332   .     A
N140   C141    1.357   .     A
C141   C144    1.469   .     S
C141   N142    1.358   1_554 A
N142   N143    1.332   .     A
N142   C141    1.358   1_556 A
N143   C138    1.357   1_556 A
C144   N149    1.358   .     A
C144   N145    1.358   1_554 A
N145   N146    1.332   .     A
N145   C144    1.358   1_556 A
N146   C147    1.357   1_556 A
C147   N148    1.358   .     A
C147   N146    1.357   1_554 A
N148   N149    1.333   .     A
C150   N151    1.359   .     A
C150   N155    1.356   .     A
C150   C156    1.468   .     S
N151   N152    1.334   .     A
N152   C153    1.357   .     A
C153   N154    1.356   .     A
N154   N155    1.331   .     A
C156   N157    1.357   .     A
C156   N161    1.357   .     A
N157   N158    1.332   .     A
N158   C159    1.357   .     A
C159   N160    1.358   .     A
C159   C162    1.469   .     S
N160   N161    1.333   .     A
C162   N163    1.357   .     A
C162   N167    1.358   .     A
N163   N164    1.332   .     A
N164   C165    1.357   .     A
C165   N166    1.357   .     A
N166   N167    1.333   .     A
C168   N173    1.358   .     A
C168   C174    1.467   .     S
C168   N169    1.357   1_556 A
N169   N170    1.332   .     A
N169   C168    1.357   1_554 A
N170   C171    1.357   1_554 A
C171   N172    1.357   .     A
C171   N170    1.357   1_556 A
N172   N173    1.332   .     A
C174   N175    1.357   .     A
C174   N179    1.358   1_556 A
N175   N176    1.332   .     A
N176   C177    1.358   .     A
C177   C180    1.467   .     S
C177   N178    1.357   1_556 A
N178   N179    1.332   .     A
N178   C177    1.357   1_554 A
N179   C174    1.358   1_554 A
C180   N185    1.357   .     A
C180   N181    1.358   1_556 A
N181   N182    1.333   .     A
N181   C180    1.358   1_554 A
N182   C183    1.357   1_554 A
C183   N184    1.357   .     A
C183   N182    1.357   1_556 A
N184   N185    1.331   .     A
C186   N187    1.359   .     A
C186   C192    1.471   .     S
C186   N191    1.357   1_554 A
N187   N188    1.336   .     A
N188   C189    1.360   .     A
C189   N190    1.355   1_554 A
N190   N191    1.330   .     A
N190   C189    1.355   1_556 A
N191   C186    1.357   1_556 A
C192   N197    1.360   .     A
C192   N193    1.356   1_554 A
N193   N194    1.329   .     A
N193   C192    1.356   1_556 A
N194   C195    1.356   1_556 A
C195   N196    1.360   .     A
C195   C198    1.471   .     S
C195   N194    1.356   1_554 A
N196   N197    1.336   .     A
C198   N199    1.361   .     A
C198   N203    1.356   1_554 A
N199   N200    1.336   .     A
N200   C201    1.359   .     A
C201   N202    1.355   1_554 A
N202   N203    1.329   .     A
N202   C201    1.355   1_556 A
N203   C198    1.356   1_556 A
C204   N209    1.361   .     A
C204   C210    1.470   .     S
C204   N205    1.356   1_556 A
N205   N206    1.328   .     A
N205   C204    1.356   1_554 A
N206   C207    1.355   1_554 A
C207   N208    1.359   .     A
C207   N206    1.355   1_556 A
N208   N209    1.336   .     A
C210   N211    1.360   .     A
C210   N215    1.356   1_556 A
N211   N212    1.336   .     A
N212   C213    1.360   .     A
C213   C216    1.470   .     S
C213   N214    1.355   1_556 A
N214   N215    1.329   .     A
N214   C213    1.355   1_554 A
N215   C210    1.356   1_554 A
C216   N221    1.359   .     A
C216   N217    1.357   1_556 A
N217   N218    1.330   .     A
N217   C216    1.357   1_554 A
N218   C219    1.355   1_554 A
C219   N220    1.359   .     A
C219   N218    1.355   1_556 A
N220   N221    1.335   .     A
