data_kag+N155+E183
_audit_creation_date              2025-01-21
_audit_creation_method            'Materials Studio'
_symmetry_space_group_name_H-M    'P1'
_symmetry_Int_Tables_number       1
_symmetry_cell_setting            triclinic
loop_
_symmetry_equiv_pos_as_xyz
  x,y,z
_cell_length_a                    28.1787
_cell_length_b                    29.9528
_cell_length_c                    12.5977
_cell_angle_alpha                 90.2725
_cell_angle_beta                  89.6690
_cell_angle_gamma                 126.0947
loop_
_atom_site_label
_atom_site_type_symbol
_atom_site_fract_x
_atom_site_fract_y
_atom_site_fract_z
_atom_site_U_iso_or_equiv
_atom_site_adp_type
_atom_site_occupancy
C0     C     0.43976   0.34076   0.00611   0.00000  Uiso   1.00
Ho1    Ho    0.47942   0.44359  -0.00186   0.00000  Uiso   1.00
C2     C     0.56813   0.66400   0.98458   0.00000  Uiso   1.00
Ho3    Ho    0.52839   0.56109   0.99307   0.00000  Uiso   1.00
O4     O     0.45095   0.36999   0.08990   0.00000  Uiso   1.00
O5     O     0.44807   0.36632   0.91901   0.00000  Uiso   1.00
O6     O     0.47102   0.41977   0.16684   0.00000  Uiso   1.00
O7     O     0.50509   0.50331   0.11963   0.00000  Uiso   1.00
C8     C     0.49003   0.46600   0.20119   0.00000  Uiso   1.00
C9     C     0.51699   0.53837   0.79000   0.00000  Uiso   1.00
O10    O     0.57335   0.47822  -0.00398   0.00000  Uiso   1.00
O11    O     0.61228   0.57093   0.98673   0.00000  Uiso   1.00
O12    O     0.55651   0.63464   0.90095   0.00000  Uiso   1.00
O13    O     0.56042   0.63864   0.07155   0.00000  Uiso   1.00
O14    O     0.53630   0.58466   0.82435   0.00000  Uiso   1.00
O15    O     0.50215   0.50095   0.87218   0.00000  Uiso   1.00
O16    O     0.43454   0.52673   0.99989   0.00000  Uiso   1.00
O17    O     0.39533   0.43385   0.00261   0.00000  Uiso   1.00
C18    C     0.39060   0.47460   1.00488   0.00000  Uiso   1.00
C19    C     0.61716   0.53035  -0.00907   0.00000  Uiso   1.00
C20    C     0.10987   0.45366   0.02197   0.00000  Uiso   1.00
Ho21   Ho    0.03896   0.48175   0.00902   0.00000  Uiso   1.00
C22    C     0.89637   0.54859   0.99330   0.00000  Uiso   1.00
Ho23   Ho    0.96704   0.52011   0.99910   0.00000  Uiso   1.00
O24    O     0.08908   0.46232   0.10400   0.00000  Uiso   1.00
O25    O     0.08969   0.45657   0.93367   0.00000  Uiso   1.00
O26    O     0.05605   0.47545   0.17552   0.00000  Uiso   1.00
O27    O     1.00191   0.50303   0.13146   0.00000  Uiso   1.00
C28    C     0.02691   0.49069   0.21048   0.00000  Uiso   1.00
C29    C    -0.02117   0.51159   0.79799   0.00000  Uiso   1.00
O30    O     0.10930   0.57099   0.00431   0.00000  Uiso   1.00
O31    O     0.05201   0.60237   0.99711   0.00000  Uiso   1.00
O32    O     0.91685   0.54161   0.90856   0.00000  Uiso   1.00
O33    O     0.91645   0.54334   0.07923   0.00000  Uiso   1.00
O34    O     0.94990   0.52706   0.83327   0.00000  Uiso   1.00
O35    O     0.00397   0.49902   0.87647   0.00000  Uiso   1.00
O36    O     0.89687   0.43109   1.00156   0.00000  Uiso   1.00
O37    O     0.95368   0.39942   0.01261   0.00000  Uiso   1.00
C38    C     0.90311   0.39159   1.00761   0.00000  Uiso   1.00
C39    C     0.10264   0.61035  -0.00076   0.00000  Uiso   1.00
C40    C     0.57313   0.91764   0.98278   0.00000  Uiso   1.00
Ho41   Ho    0.52960   0.97337   0.99214   0.00000  Uiso   1.00
C42    C     0.43215   0.08519   0.01277   0.00000  Uiso   1.00
Ho43   Ho    0.47509   0.02891   0.00487   0.00000  Uiso   1.00
O44    O     0.56235   0.93461   0.89921   0.00000  Uiso   1.00
O45    O     0.56335   0.93309   0.06974   0.00000  Uiso   1.00
O46    O     0.54189   0.96136   0.82555   0.00000  Uiso   1.00
O47    O     0.50147   0.00302   0.87111   0.00000  Uiso   1.00
C48    C     0.52035  -0.01579   0.79148   0.00000  Uiso   1.00
C49    C     0.48406   1.01814   0.20557   0.00000  Uiso   1.00
O50    O     0.43771   0.90045   0.98998   0.00000  Uiso   1.00
O51    O     0.39299   0.94420   0.00365   0.00000  Uiso   1.00
O52    O     0.44265   0.06823   0.09676   0.00000  Uiso   1.00
O53    O     0.44171   0.06936   0.92616   0.00000  Uiso   1.00
O54    O     0.46282   0.04120   0.17130   0.00000  Uiso   1.00
O55    O     0.50301   0.99913   0.12637   0.00000  Uiso   1.00
O56    O     0.56697   0.10182   0.00575   0.00000  Uiso   1.00
O57    O     0.61179   0.05811   0.99410   0.00000  Uiso   1.00
C58    C     0.61330   0.10231   0.00053   0.00000  Uiso   1.00
C59    C     0.39137   0.89998   0.99584   0.00000  Uiso   1.00
C60    C     0.49559   0.47982   0.31441   0.00000  Uiso   1.00
C61    C     0.51290   0.52827   0.48248   0.00000  Uiso   1.00
C62    C     0.49385   0.47609   0.50828   0.00000  Uiso   1.00
S63    S     0.52956   0.57369   0.58192   0.00000  Uiso   1.00
S64    S     0.48751   0.45927   0.63830   0.00000  Uiso   1.00
S65    S     0.51888   0.54486   0.35241   0.00000  Uiso   1.00
S66    S     0.47748   0.43073   0.40883   0.00000  Uiso   1.00
C67    C     0.51153   0.52461   0.67644   0.00000  Uiso   1.00
C68    C    -0.01256   0.50754   0.68455   0.00000  Uiso   1.00
C69    C     0.98672   0.51053   0.49160   0.00000  Uiso   1.00
C70    C     0.01950   0.49243   0.51695   0.00000  Uiso   1.00
S71    S     0.97704   0.51725   0.36214   0.00000  Uiso   1.00
S72    S     0.04907   0.47779   0.41748   0.00000  Uiso   1.00
S73    S     0.95716   0.52520   0.59092   0.00000  Uiso   1.00
S74    S     0.02914   0.48561   0.64641   0.00000  Uiso   1.00
C75    C     1.01857   0.49520   0.32385   0.00000  Uiso   1.00
C76    C     0.49005   0.01143   0.31866   0.00000  Uiso   1.00
C77    C     0.50962   0.98402   0.48541   0.00000  Uiso   1.00
C78    C     0.49411   0.01789   0.51182   0.00000  Uiso   1.00
S79    S     0.52643   0.95710   0.58360   0.00000  Uiso   1.00
S80    S     0.49266   0.03166   0.64152   0.00000  Uiso   1.00
S81    S     0.51129   0.97057   0.35562   0.00000  Uiso   1.00
S82    S     0.47705   0.04460   0.41357   0.00000  Uiso   1.00
C83    C     0.51412   0.99082   0.67836   0.00000  Uiso   1.00
C84    C     0.33203   0.46190   0.01664   0.00000  Uiso   1.00
C85    C     0.23243   0.43345   0.98462   0.00000  Uiso   1.00
C86    C     0.25291   0.46828   0.06972   0.00000  Uiso   1.00
S87    S     0.16601   0.41090   0.93410   0.00000  Uiso   1.00
S88    S     0.21013   0.48490   0.12344   0.00000  Uiso   1.00
S89    S     0.27646   0.41808   0.92977   0.00000  Uiso   1.00
S90    S     0.32189   0.49653   0.11255   0.00000  Uiso   1.00
C91    C     0.15732   0.44716   1.02888   0.00000  Uiso   1.00
C92    C     0.84871   0.33472   0.00797   0.00000  Uiso   1.00
C93    C     0.77515   0.23414   0.00591   0.00000  Uiso   1.00
C94    C     0.74499   0.25658   1.00503   0.00000  Uiso   1.00
S95    S     0.73592   0.16407   0.00378   0.00000  Uiso   1.00
S96    S     0.67107   0.21448   1.00263   0.00000  Uiso   1.00
S97    S     0.84977   0.27777   0.00825   0.00000  Uiso   1.00
S98    S     0.78268   0.32583   1.00629   0.00000  Uiso   1.00
C99    C     0.67053   0.15689   1.00167   0.00000  Uiso   1.00
C100   C     0.84987   0.55665   0.99374   0.00000  Uiso   1.00
C101   C     0.76893   0.56041   0.94160   0.00000  Uiso   1.00
C102   C     0.76170   0.54850   0.04728   0.00000  Uiso   1.00
S103   S     0.71686   0.56189   0.87802   0.00000  Uiso   1.00
S104   S     0.70067   0.53425   0.10872   0.00000  Uiso   1.00
S105   S     0.82712   0.56895   0.87821   0.00000  Uiso   1.00
S106   S     0.81172   0.54415   0.10991   0.00000  Uiso   1.00
C107   C     0.67612   0.54384   0.99271   0.00000  Uiso   1.00
C108   C     0.33392   0.84547   0.99166   0.00000  Uiso   1.00
C109   C     0.23040   0.76722   0.01087   0.00000  Uiso   1.00
C110   C     0.25857   0.74649   0.96993   0.00000  Uiso   1.00
S111   S     0.15716   0.72250   0.03600   0.00000  Uiso   1.00
S112   S     0.21997   0.67792   0.94783   0.00000  Uiso   1.00
S113   S     0.27050   0.83629   0.03521   0.00000  Uiso   1.00
S114   S     0.33140   0.78988   0.94582   0.00000  Uiso   1.00
C115   C     0.15650   0.66729  -0.00611   0.00000  Uiso   1.00
C116   C     0.58933   0.87914   0.98064   0.00000  Uiso   1.00
C117   C     0.59437   0.80397   0.03478   0.00000  Uiso   1.00
C118   C     0.59431   0.80357   0.92681   0.00000  Uiso   1.00
S119   S     0.58953   0.75220   0.09985   0.00000  Uiso   1.00
S120   S     0.58915   0.75077   0.86343   0.00000  Uiso   1.00
S121   S     0.59306   0.85290   0.09885   0.00000  Uiso   1.00
S122   S     0.59231   0.85204   0.86232   0.00000  Uiso   1.00
C123   C     0.58447   0.72042  -0.01787   0.00000  Uiso   1.00
C124   C     0.42342   0.28428   0.00866   0.00000  Uiso   1.00
C125   C     0.41448   0.20102   0.95720   0.00000  Uiso   1.00
C126   C     0.41253   0.20073   0.06508   0.00000  Uiso   1.00
S127   S     0.41657   0.15230   0.89451   0.00000  Uiso   1.00
S128   S     0.41262   0.15147   0.13096   0.00000  Uiso   1.00
S129   S     0.42075   0.25321   0.89121   0.00000  Uiso   1.00
S130   S     0.41643   0.25304   0.12778   0.00000  Uiso   1.00
C131   C     0.41710   0.12462   1.01356   0.00000  Uiso   1.00
loop_
_geom_bond_atom_site_label_1
_geom_bond_atom_site_label_2
_geom_bond_distance
_geom_bond_site_symmetry_2
_ccdc_geom_bond_type
C0     O4      1.284   .     A
C0     C124    1.469   .     S
C0     O5      1.280   1_554 A
Ho1    O4      2.184   .     S
Ho1    O6      2.212   .     S
Ho1    O7      2.128   .     S
Ho1    O10     2.202   .     S
Ho1    O17     2.211   .     S
Ho1    O5      2.170   1_554 S
Ho1    O15     2.144   1_554 S
C2     O12     1.283   .     A
C2     O13     1.279   1_556 A
C2     C123    1.467   1_556 S
Ho3    O11     2.204   .     S
Ho3    O12     2.187   .     S
Ho3    O14     2.211   .     S
Ho3    O15     2.128   .     S
Ho3    O16     2.203   .     S
Ho3    O7      2.155   1_556 S
Ho3    O13     2.169   1_556 S
O5     C0      1.280   1_556 A
O5     Ho1     2.170   1_556 S
O6     C8      1.231   .     D
O7     C8      1.390   .     S
O7     Ho3     2.155   1_554 S
C8     C60     1.467   .     S
C9     O14     1.230   .     D
C9     O15     1.399   .     S
C9     C67     1.471   .     S
O10    C19     1.302   .     A
O11    C19     1.302   1_556 A
O13    C2      1.279   1_554 A
O13    Ho3     2.169   1_554 S
O15    Ho1     2.144   1_556 S
O16    C18     1.303   .     A
O17    C18     1.304   1_554 A
C18    O17     1.304   1_556 A
C18    C84     1.466   1_556 S
C19    O11     1.302   1_554 A
C19    C107    1.460   1_554 S
C20    O24     1.284   .     A
C20    O25     1.279   1_554 A
C20    C91     1.463   1_554 S
Ho21   O24     2.182   .     S
Ho21   O26     2.189   .     S
Ho21   O30     2.199   .     S
Ho21   O25     2.182   1_554 S
Ho21   O27     2.152   1_455 S
Ho21   O35     2.158   1_554 S
Ho21   O37     2.208   1_455 S
C22    O32     1.284   .     A
C22    C100    1.466   .     S
C22    O33     1.277   1_556 A
Ho23   O32     2.194   .     S
Ho23   O34     2.185   .     S
Ho23   O36     2.193   .     S
Ho23   O27     2.151   1_556 S
Ho23   O31     2.203   1_655 S
Ho23   O33     2.163   1_556 S
Ho23   O35     2.148   1_655 S
O25    C20     1.279   1_556 A
O25    Ho21    2.182   1_556 S
O26    C28     1.230   .     D
O27    Ho21    2.152   1_655 S
O27    Ho23    2.151   1_554 S
O27    C28     1.394   1_655 S
C28    O27     1.394   1_455 S
C28    C75     1.465   1_455 S
C29    O35     1.395   .     S
C29    C68     1.465   .     S
C29    O34     1.231   1_455 D
O30    C39     1.300   .     A
O31    Ho23    2.203   1_455 S
O31    C39     1.301   1_556 A
O33    C22     1.277   1_554 A
O33    Ho23    2.163   1_554 S
O34    C29     1.231   1_655 D
O35    Ho21    2.158   1_556 S
O35    Ho23    2.148   1_455 S
O36    C38     1.297   .     A
O37    Ho21    2.208   1_655 S
O37    C38     1.303   1_554 A
C38    O37     1.303   1_556 A
C38    C92     1.475   1_556 S
C39    C115    1.472   .     S
C39    O31     1.301   1_554 A
C40    O44     1.284   .     A
C40    C116    1.470   .     S
C40    O45     1.277   1_556 A
Ho41   O44     2.192   .     S
Ho41   O46     2.187   .     S
Ho41   O50     2.194   .     S
Ho41   O45     2.166   1_556 S
Ho41   O47     2.144   1_565 S
Ho41   O55     2.161   1_556 S
Ho41   O57     2.209   1_565 S
C42    O52     1.285   .     A
C42    O53     1.277   1_554 A
C42    C131    1.471   1_554 S
Ho43   O52     2.192   .     S
Ho43   O54     2.187   .     S
Ho43   O56     2.193   .     S
Ho43   O47     2.155   1_554 S
Ho43   O51     2.208   1_545 S
Ho43   O53     2.168   1_554 S
Ho43   O55     2.147   1_545 S
O45    C40     1.277   1_554 A
O45    Ho41    2.166   1_554 S
O46    C48     1.231   1_565 D
O47    C48     1.396   .     S
O47    Ho41    2.144   1_545 S
O47    Ho43    2.155   1_556 S
C48    O46     1.231   1_545 D
C48    C83     1.465   1_545 S
C49    O55     1.397   .     S
C49    O54     1.231   1_565 D
C49    C76     1.464   1_565 S
O50    C59     1.299   .     A
O51    Ho43    2.208   1_565 S
O51    C59     1.301   1_554 A
O53    C42     1.277   1_556 A
O53    Ho43    2.168   1_556 S
O54    C49     1.231   1_545 D
O55    Ho41    2.161   1_554 S
O55    Ho43    2.147   1_565 S
O56    C58     1.298   .     A
O57    Ho41    2.209   1_545 S
O57    C58     1.301   1_556 A
C58    O57     1.301   1_554 A
C58    C99     1.472   1_554 S
C59    C108    1.475   .     S
C59    O51     1.301   1_556 A
C60    S65     1.716   .     A
C60    S66     1.721   .     A
C61    C62     1.360   .     A
C61    S63     1.697   .     A
C61    S65     1.693   .     A
C62    S64     1.693   .     A
C62    S66     1.697   .     A
S63    C67     1.722   .     A
S64    C67     1.718   .     A
C68    S74     1.716   .     A
C68    S73     1.717   1_455 A
C69    S71     1.688   .     A
C69    S73     1.693   .     A
C69    C70     1.358   1_655 A
C70    S72     1.694   .     A
C70    S74     1.688   .     A
C70    C69     1.358   1_455 A
S71    C75     1.715   .     A
S72    C75     1.717   1_455 A
S73    C68     1.717   1_655 A
C75    S72     1.717   1_655 A
C75    C28     1.465   1_655 S
C76    S82     1.721   .     A
C76    S81     1.716   1_545 A
C76    C49     1.464   1_545 S
C77    S79     1.694   .     A
C77    S81     1.689   .     A
C77    C78     1.360   1_565 A
C78    S80     1.689   .     A
C78    S82     1.695   .     A
C78    C77     1.360   1_545 A
S79    C83     1.721   .     A
S80    C83     1.720   1_545 A
S81    C76     1.716   1_565 A
C83    S80     1.720   1_565 A
C83    C48     1.465   1_565 S
C84    S90     1.718   .     A
C84    S89     1.719   1_554 A
C84    C18     1.466   1_554 S
C85    S87     1.698   .     A
C85    S89     1.700   .     A
C85    C86     1.363   1_556 A
C86    S88     1.689   .     A
C86    S90     1.690   .     A
C86    C85     1.363   1_554 A
S87    C91     1.721   .     A
S88    C91     1.714   1_554 A
S89    C84     1.719   1_556 A
C91    S88     1.714   1_556 A
C91    C20     1.463   1_556 S
C92    S97     1.724   .     A
C92    S98     1.718   1_554 A
C92    C38     1.475   1_554 S
C93    S95     1.701   .     A
C93    S97     1.701   .     A
C93    C94     1.359   1_554 A
C94    S96     1.684   .     A
C94    S98     1.684   .     A
C94    C93     1.359   1_556 A
S95    C99     1.725   1_554 A
S96    C99     1.716   .     A
S98    C92     1.718   1_556 A
C99    S95     1.725   1_556 A
C99    C58     1.472   1_556 S
C100   S105    1.720   .     A
C100   S106    1.718   1_556 A
C101   S103    1.699   .     A
C101   S105    1.698   .     A
C101   C102    1.363   1_556 A
C102   S104    1.692   .     A
C102   S106    1.690   .     A
C102   C101    1.363   1_554 A
S103   C107    1.719   .     A
S104   C107    1.717   1_554 A
S106   C100    1.718   1_554 A
C107   S104    1.717   1_556 A
C107   C19     1.460   1_556 S
C108   S114    1.721   .     A
C108   S113    1.727   1_556 A
C109   S111    1.701   .     A
C109   S113    1.701   .     A
C109   C110    1.362   1_554 A
C110   S112    1.686   .     A
C110   S114    1.687   .     A
C110   C109    1.362   1_556 A
S111   C115    1.724   .     A
S112   C115    1.719   1_556 A
S113   C108    1.727   1_554 A
C115   S112    1.719   1_554 A
C116   S122    1.719   .     A
C116   S121    1.719   1_556 A
C117   S119    1.690   .     A
C117   S121    1.689   .     A
C117   C118    1.360   1_554 A
C118   S120    1.697   .     A
C118   S122    1.697   .     A
C118   C117    1.360   1_556 A
S119   C123    1.719   .     A
S120   C123    1.717   1_556 A
S121   C116    1.719   1_554 A
C123   S120    1.717   1_554 A
C123   C2      1.467   1_554 S
C124   S130    1.720   .     A
C124   S129    1.722   1_554 A
C125   S127    1.687   .     A
C125   S129    1.689   .     A
C125   C126    1.360   1_556 A
C126   S128    1.698   .     A
C126   S130    1.696   .     A
C126   C125    1.360   1_554 A
S127   C131    1.721   .     A
S128   C131    1.719   1_554 A
S129   C124    1.722   1_556 A
C131   S128    1.719   1_556 A
C131   C42     1.471   1_556 S
