data_kag+N106+E1
_audit_creation_date              2025-01-21
_audit_creation_method            'Materials Studio'
_symmetry_space_group_name_H-M    'P1'
_symmetry_Int_Tables_number       1
_symmetry_cell_setting            triclinic
loop_
_symmetry_equiv_pos_as_xyz
  x,y,z
_cell_length_a                    42.2288
_cell_length_b                    43.9842
_cell_length_c                    18.9552
_cell_angle_alpha                 93.5736
_cell_angle_beta                  85.7714
_cell_angle_gamma                 125.0962
loop_
_atom_site_label
_atom_site_type_symbol
_atom_site_fract_x
_atom_site_fract_y
_atom_site_fract_z
_atom_site_U_iso_or_equiv
_atom_site_adp_type
_atom_site_occupancy
Y0     Y     0.52619   0.54773  -0.01224   0.00000  Uiso   1.00
Y1     Y     0.48687   0.46251   1.01217   0.00000  Uiso   1.00
O2     O     0.57727   0.54464  -0.03583   0.00000  Uiso   1.00
O3     O     0.51973   0.50047   0.91990   0.00000  Uiso   1.00
C4     C     0.46552   0.39470   1.04965   0.00000  Uiso   1.00
O5     O     0.46257   0.45256   0.90367   0.00000  Uiso   1.00
O6     O     0.55305   0.60853   0.00959   0.00000  Uiso   1.00
O7     O     0.53197   0.58747   0.90867   0.00000  Uiso   1.00
O8     O     0.55181   0.49072   1.01853   0.00000  Uiso   1.00
O9     O     0.49334   0.50980   0.08008   0.00000  Uiso   1.00
O10    O     0.55049   0.55777   0.09628   0.00000  Uiso   1.00
O11    O     0.46122   0.51944  -0.01861   0.00000  Uiso   1.00
C12    C     0.58093   0.52076   0.99087   0.00000  Uiso   1.00
O13    O     0.43576   0.46552   1.03573   0.00000  Uiso   1.00
C14    C     0.48958   0.48027   0.87552   0.00000  Uiso   1.00
O15    O     0.46009   0.40172   0.99016   0.00000  Uiso   1.00
O16    O     0.48091   0.42268   0.09126   0.00000  Uiso   1.00
C17    C     0.54748   0.61548  -0.04986   0.00000  Uiso   1.00
C18    C     0.43210   0.48944   0.00892   0.00000  Uiso   1.00
C19    C     0.52349   0.53008   0.12447   0.00000  Uiso   1.00
Y20    Y     0.97918   0.51786  -0.00622   0.00000  Uiso   1.00
Y21    Y     0.03101   0.48819   1.00605   0.00000  Uiso   1.00
O22    O     0.03867   0.56994  -0.02732   0.00000  Uiso   1.00
O23    O     1.02318   0.51656   0.92014   0.00000  Uiso   1.00
C24    C     0.08293   0.47275   1.02724   0.00000  Uiso   1.00
O25    O     0.01250   0.46352   0.89581   0.00000  Uiso   1.00
O26    O     0.94472   0.54080   0.02867   0.00000  Uiso   1.00
O27    O     0.93844   0.51963   0.92469   0.00000  Uiso   1.00
O28    O     0.07177   0.55127   1.02054   0.00000  Uiso   1.00
O29    O    -0.01305   0.48939   0.07962   0.00000  Uiso   1.00
O30    O     0.99750   0.54234   0.10419   0.00000  Uiso   1.00
O31    O     0.93834   0.45483  -0.02049   0.00000  Uiso   1.00
C32    C     0.06977   0.57706   0.99804   0.00000  Uiso   1.00
O33    O     0.97145   0.43604   1.02698   0.00000  Uiso   1.00
C34    C     0.01141   0.48776   0.87199   0.00000  Uiso   1.00
O35    O     0.06612   0.46603   0.97049   0.00000  Uiso   1.00
O36    O     0.07191   0.48655   0.07491   0.00000  Uiso   1.00
C37    C     0.92793   0.53407  -0.02810   0.00000  Uiso   1.00
C38    C     0.94042   0.42897   0.00186   0.00000  Uiso   1.00
C39    C    -0.00137   0.51811   0.12790   0.00000  Uiso   1.00
Y40    Y     0.48643   0.02664   1.01614   0.00000  Uiso   1.00
Y41    Y     0.52217   0.98084  -0.01729   0.00000  Uiso   1.00
O42    O     0.43383   0.96843   1.03461   0.00000  Uiso   1.00
O43    O     0.49042  -0.01332   0.07827   0.00000  Uiso   1.00
C44    C     0.54238   0.93362  -0.05371   0.00000  Uiso   1.00
O45    O     0.54727   1.00088   0.09080   0.00000  Uiso   1.00
O46    O     0.46307   0.05945   0.99258   0.00000  Uiso   1.00
O47    O     0.47905   0.06302   0.09641   0.00000  Uiso   1.00
O48    O     0.45706   0.93936  -0.02726   0.00000  Uiso   1.00
O49    O     0.51825   1.02086   0.92065   0.00000  Uiso   1.00
O50    O     0.46146   0.00676   0.90794   0.00000  Uiso   1.00
O51    O     0.55160   0.06815   1.02584   0.00000  Uiso   1.00
C52    C     0.42873   0.93941   0.00266   0.00000  Uiso   1.00
O53    O     0.57482   0.03897  -0.03560   0.00000  Uiso   1.00
C54    C     0.52068  -0.00001   0.12160   0.00000  Uiso   1.00
O55    O     0.54471   0.94753   0.00730   0.00000  Uiso   1.00
O56    O     0.53052   0.94504   0.90250   0.00000  Uiso   1.00
C57    C     0.46636   0.07396   1.05324   0.00000  Uiso   1.00
C58    C     0.57994   0.06803   0.99621   0.00000  Uiso   1.00
C59    C     0.48804   0.00757   0.87723   0.00000  Uiso   1.00
C60    C     0.51479   0.51217   0.34726   0.00000  Uiso   1.00
C61    C     0.55004   0.54072   0.31490   0.00000  Uiso   1.00
C62    C     0.55344   0.54549   0.24183   0.00000  Uiso   1.00
C63    C     0.52158   0.52207   0.19969   0.00000  Uiso   1.00
C64    C     0.48688   0.49260   0.23121   0.00000  Uiso   1.00
C65    C     0.48350   0.48771   0.30428   0.00000  Uiso   1.00
C66    C     0.51045   0.50848   0.42555   0.00000  Uiso   1.00
C67    C     0.47584   0.49890   0.46234   0.00000  Uiso   1.00
C68    C     0.47184   0.49578   0.53593   0.00000  Uiso   1.00
C69    C     0.50244   0.50235   0.57471   0.00000  Uiso   1.00
C70    C     0.53703   0.51190   0.53791   0.00000  Uiso   1.00
C71    C     0.54102   0.51500   0.46433   0.00000  Uiso   1.00
C72    C     0.49814   0.49863   0.65299   0.00000  Uiso   1.00
C73    C     0.52946   0.52305   0.69598   0.00000  Uiso   1.00
C74    C     0.52612   0.51802   0.76900   0.00000  Uiso   1.00
C75    C     0.49146   0.48845   0.80043   0.00000  Uiso   1.00
C76    C     0.45960   0.46507   0.75828   0.00000  Uiso   1.00
C77    C     0.46295   0.46999   0.68528   0.00000  Uiso   1.00
H78    H     0.57464   0.56021   0.34635   0.00000  Uiso   1.00
H79    H     0.58068   0.56818   0.21856   0.00000  Uiso   1.00
H80    H     0.46202   0.47392   0.19965   0.00000  Uiso   1.00
H81    H     0.45624   0.46494   0.32725   0.00000  Uiso   1.00
H82    H     0.45199   0.49444   0.43435   0.00000  Uiso   1.00
H83    H     0.44491   0.48868   0.56255   0.00000  Uiso   1.00
H84    H     0.56085   0.51628   0.56588   0.00000  Uiso   1.00
H85    H     0.56790   0.52197   0.43769   0.00000  Uiso   1.00
H86    H     0.55672   0.54583   0.67302   0.00000  Uiso   1.00
H87    H     0.55100   0.53666   0.80056   0.00000  Uiso   1.00
H88    H     0.43241   0.44228   0.78148   0.00000  Uiso   1.00
H89    H     0.43836   0.45049   0.65381   0.00000  Uiso   1.00
C90    C     0.00043   0.49391   0.65132   0.00000  Uiso   1.00
C91    C     0.99279   0.46119   0.67861   0.00000  Uiso   1.00
C92    C     0.99454   0.45844   0.75107   0.00000  Uiso   1.00
C93    C     0.00394   0.48835   0.79760   0.00000  Uiso   1.00
C94    C     0.00975   0.52033   0.77101   0.00000  Uiso   1.00
C95    C     0.00804   0.52311   0.69851   0.00000  Uiso   1.00
C96    C     0.00233   0.49823   0.57373   0.00000  Uiso   1.00
C97    C    -0.01304   0.51561   0.54520   0.00000  Uiso   1.00
C98    C    -0.01052   0.52017   0.47222   0.00000  Uiso   1.00
C99    C     0.00755   0.50759   0.42616   0.00000  Uiso   1.00
C100   C     1.02302   0.49032   0.45471   0.00000  Uiso   1.00
C101   C     1.02048   0.48573   0.52768   0.00000  Uiso   1.00
C102   C     0.00942   0.51185   0.34856   0.00000  Uiso   1.00
C103   C     1.00189   0.48265   0.30139   0.00000  Uiso   1.00
C104   C     1.00025   0.48545   0.22885   0.00000  Uiso   1.00
C105   C     0.00604   0.51743   0.20227   0.00000  Uiso   1.00
C106   C     0.01539   0.54731   0.24878   0.00000  Uiso   1.00
C107   C     0.01705   0.54454   0.32124   0.00000  Uiso   1.00
H108   H     0.98604   0.43794   0.64372   0.00000  Uiso   1.00
H109   H     0.98967   0.43334   0.77039   0.00000  Uiso   1.00
H110   H     0.01707   0.54374   0.80593   0.00000  Uiso   1.00
H111   H     0.01429   0.54875   0.67907   0.00000  Uiso   1.00
H112   H    -0.02748   0.52524   0.57921   0.00000  Uiso   1.00
H113   H    -0.02332   0.53301   0.45170   0.00000  Uiso   1.00
H114   H     1.03761   0.48083   0.42071   0.00000  Uiso   1.00
H115   H     1.03337   0.47299   0.54822   0.00000  Uiso   1.00
H116   H     0.99567   0.45703   0.32086   0.00000  Uiso   1.00
H117   H     0.99302   0.46207   0.19391   0.00000  Uiso   1.00
H118   H     0.02029   0.57242   0.22943   0.00000  Uiso   1.00
H119   H     0.02373   0.56778   0.35611   0.00000  Uiso   1.00
C120   C     0.51292   0.00866   0.34711   0.00000  Uiso   1.00
C121   C     0.48088   0.99726   0.30724   0.00000  Uiso   1.00
C122   C     0.48402   0.99652   0.23336   0.00000  Uiso   1.00
C123   C     0.51913   0.00681   0.19829   0.00000  Uiso   1.00
C124   C     0.55164   0.01984   0.23795   0.00000  Uiso   1.00
C125   C     0.54857   0.02080   0.31173   0.00000  Uiso   1.00
C126   C     0.50878   0.00648   0.42520   0.00000  Uiso   1.00
C127   C     0.48702   0.01722   0.46418   0.00000  Uiso   1.00
C128   C     0.48266   0.01455   0.53770   0.00000  Uiso   1.00
C129   C     0.49985   0.00093   0.57369   0.00000  Uiso   1.00
C130   C     0.52163   0.99021   0.53472   0.00000  Uiso   1.00
C131   C     0.52603   0.99291   0.46121   0.00000  Uiso   1.00
C132   C     0.49573  -0.00125   0.65178   0.00000  Uiso   1.00
C133   C     0.46009   0.98660   0.68722   0.00000  Uiso   1.00
C134   C     0.45705   0.98757   0.76100   0.00000  Uiso   1.00
C135   C     0.48958   0.00065   0.80060   0.00000  Uiso   1.00
C136   C     0.52466   0.01088   0.76549   0.00000  Uiso   1.00
C137   C     0.52779   0.01015   0.69161   0.00000  Uiso   1.00
H138   H     0.45297   0.98743   0.33318   0.00000  Uiso   1.00
H139   H     0.45855   0.98629   0.20383   0.00000  Uiso   1.00
H140   H     0.57915   0.02822   0.21198   0.00000  Uiso   1.00
H141   H     0.57389   0.03037   0.34121   0.00000  Uiso   1.00
H142   H     0.47381   0.02818   0.43785   0.00000  Uiso   1.00
H143   H     0.46640   0.02379   0.56652   0.00000  Uiso   1.00
H144   H     0.53488   0.97929   0.56104   0.00000  Uiso   1.00
H145   H     0.54239   0.98379   0.43242   0.00000  Uiso   1.00
H146   H     0.43475   0.97701   0.65781   0.00000  Uiso   1.00
H147   H     0.42954   0.97914   0.78703   0.00000  Uiso   1.00
H148   H     0.55013   0.02105   0.79496   0.00000  Uiso   1.00
H149   H     0.55568   0.01998   0.66562   0.00000  Uiso   1.00
C150   C     0.32117   0.47314   1.01961   0.00000  Uiso   1.00
C151   C     0.32609   0.44899   0.05473   0.00000  Uiso   1.00
C152   C     0.36194   0.45379   0.05058   0.00000  Uiso   1.00
C153   C     0.39362   0.48305   1.01186   0.00000  Uiso   1.00
C154   C     0.38854   0.50709   0.97678   0.00000  Uiso   1.00
C155   C     0.35277   0.50215   0.98057   0.00000  Uiso   1.00
C156   C     0.28342   0.46849   1.02348   0.00000  Uiso   1.00
C157   C     0.26941   0.47285   0.96271   0.00000  Uiso   1.00
C158   C     0.23493   0.47044   0.96645   0.00000  Uiso   1.00
C159   C     0.21354   0.46355   1.03109   0.00000  Uiso   1.00
C160   C     0.22723   0.45863   0.09174   0.00000  Uiso   1.00
C161   C     0.26180   0.46100   0.08795   0.00000  Uiso   1.00
C162   C     0.17766   0.46249   1.03490   0.00000  Uiso   1.00
C163   C     0.16994   0.47997   0.09148   0.00000  Uiso   1.00
C164   C     0.13793   0.48187   0.09125   0.00000  Uiso   1.00
C165   C     0.11333   0.46648   1.03423   0.00000  Uiso   1.00
C166   C     0.12010   0.44761   0.97944   0.00000  Uiso   1.00
C167   C     0.15186   0.44561   0.97977   0.00000  Uiso   1.00
H168   H     0.30213   0.42626   0.08486   0.00000  Uiso   1.00
H169   H     0.36493   0.43482   0.07828   0.00000  Uiso   1.00
H170   H     0.41232   0.52995   0.94664   0.00000  Uiso   1.00
H171   H     0.35003   0.52151   0.95382   0.00000  Uiso   1.00
H172   H     0.28525   0.47828   0.91216   0.00000  Uiso   1.00
H173   H     0.22546   0.47479   0.91888   0.00000  Uiso   1.00
H174   H     0.21116   0.45293   0.14207   0.00000  Uiso   1.00
H175   H     0.27210   0.45787   0.13576   0.00000  Uiso   1.00
H176   H     0.18957   0.49357   0.13432   0.00000  Uiso   1.00
H177   H     0.13336   0.49662   0.13408   0.00000  Uiso   1.00
H178   H     0.10136   0.43519   0.93513   0.00000  Uiso   1.00
H179   H     0.15661   0.43137   0.93610   0.00000  Uiso   1.00
C180   C     0.83882   0.31613  -0.00372   0.00000  Uiso   1.00
C181   C     0.84152   0.34355   0.95672   0.00000  Uiso   1.00
C182   C     0.87446   0.38014   0.95870   0.00000  Uiso   1.00
C183   C     0.90562   0.39007  -0.00033   0.00000  Uiso   1.00
C184   C     0.90315   0.36249   0.03856   0.00000  Uiso   1.00
C185   C     0.86995   0.32595   0.03725   0.00000  Uiso   1.00
C186   C     0.80308   0.27770  -0.00377   0.00000  Uiso   1.00
C187   C     0.78595   0.25906   0.06009   0.00000  Uiso   1.00
C188   C     0.75080   0.22393   0.06064   0.00000  Uiso   1.00
C189   C     0.73234   0.20651  -0.00275   0.00000  Uiso   1.00
C190   C     0.75004   0.22465   0.93315   0.00000  Uiso   1.00
C191   C     0.78498   0.25998   0.93269   0.00000  Uiso   1.00
C192   C     0.69389   0.17032  -0.00165   0.00000  Uiso   1.00
C193   C     0.68582   0.14168   0.94927   0.00000  Uiso   1.00
C194   C     0.64902   0.10806   0.94936   0.00000  Uiso   1.00
C195   C     0.61945   0.10275  -0.00226   0.00000  Uiso   1.00
C196   C     0.62775   0.13125   0.04729   0.00000  Uiso   1.00
C197   C     0.66459   0.16461   0.04772   0.00000  Uiso   1.00
H198   H     0.81777   0.33683   0.92533   0.00000  Uiso   1.00
H199   H     0.87553   0.40065   0.92785   0.00000  Uiso   1.00
H200   H     0.92666   0.36921   0.07067   0.00000  Uiso   1.00
H201   H     0.86868   0.30527   0.06789   0.00000  Uiso   1.00
H202   H     0.79916   0.27213   0.10987   0.00000  Uiso   1.00
H203   H     0.73785   0.21043   0.11072   0.00000  Uiso   1.00
H204   H     0.73623   0.21201   0.88362   0.00000  Uiso   1.00
H205   H     0.79780   0.27358   0.88266   0.00000  Uiso   1.00
H206   H     0.70804   0.14527   0.91106   0.00000  Uiso   1.00
H207   H     0.64355   0.08646   0.91088   0.00000  Uiso   1.00
H208   H     0.60575   0.12776   0.08593   0.00000  Uiso   1.00
H209   H     0.66995   0.18632   0.08575   0.00000  Uiso   1.00
C210   C     0.83460   0.54629  -0.03653   0.00000  Uiso   1.00
C211   C     0.84151   0.52785   0.90762   0.00000  Uiso   1.00
C212   C     0.87314   0.52537   0.90794   0.00000  Uiso   1.00
C213   C     0.89814   0.54110  -0.03567   0.00000  Uiso   1.00
C214   C     0.89238   0.56115   0.01803   0.00000  Uiso   1.00
C215   C     0.86099   0.56372   0.01763   0.00000  Uiso   1.00
C216   C     0.79899   0.54568  -0.03245   0.00000  Uiso   1.00
C217   C     0.77818   0.53978   0.03260   0.00000  Uiso   1.00
C218   C     0.74384   0.53766   0.03652   0.00000  Uiso   1.00
C219   C     0.72944   0.54133  -0.02444   0.00000  Uiso   1.00
C220   C     0.75051   0.54790   0.91069   0.00000  Uiso   1.00
C221   C     0.78492   0.54996   0.90671   0.00000  Uiso   1.00
C222   C     0.69176   0.53681  -0.02035   0.00000  Uiso   1.00
C223   C     0.68679   0.56083   0.94420   0.00000  Uiso   1.00
C224   C     0.65097   0.55610   0.94851   0.00000  Uiso   1.00
C225   C     0.61939   0.52703  -0.01218   0.00000  Uiso   1.00
C226   C     0.62454   0.50317   0.02326   0.00000  Uiso   1.00
C227   C     0.66027   0.50803   0.01928   0.00000  Uiso   1.00
H228   H     0.82154   0.51398   0.86536   0.00000  Uiso   1.00
H229   H     0.87706   0.50988   0.86577   0.00000  Uiso   1.00
H230   H     0.91163   0.57407   0.06156   0.00000  Uiso   1.00
H231   H     0.85697   0.57883   0.06049   0.00000  Uiso   1.00
H232   H     0.78794   0.53593   0.08037   0.00000  Uiso   1.00
H233   H     0.72840   0.53298   0.08734   0.00000  Uiso   1.00
H234   H     0.73990   0.55051   0.86275   0.00000  Uiso   1.00
H235   H     0.80056   0.55490   0.85607   0.00000  Uiso   1.00
H236   H     0.71070   0.58342   0.91372   0.00000  Uiso   1.00
H237   H     0.64792   0.57495   0.92053   0.00000  Uiso   1.00
H238   H     0.60085   0.48049   0.05391   0.00000  Uiso   1.00
H239   H     0.66310   0.48881   0.04637   0.00000  Uiso   1.00
C240   C     0.31513   0.83668   1.00131   0.00000  Uiso   1.00
C241   C     0.34420   0.84286   0.95084   0.00000  Uiso   1.00
C242   C     0.38090   0.87636   0.95103   0.00000  Uiso   1.00
C243   C     0.38931   0.90458   1.00138   0.00000  Uiso   1.00
C244   C     0.36001   0.89879   0.05101   0.00000  Uiso   1.00
C245   C     0.32335   0.86498   0.05142   0.00000  Uiso   1.00
C246   C     0.27683   0.80033   1.00248   0.00000  Uiso   1.00
C247   C     0.25957   0.78186   0.06643   0.00000  Uiso   1.00
C248   C     0.22488   0.74635   0.06683   0.00000  Uiso   1.00
C249   C     0.20654   0.72876   1.00339   0.00000  Uiso   1.00
C250   C     0.22321   0.74774   0.93970   0.00000  Uiso   1.00
C251   C     0.25814   0.78305   0.93920   0.00000  Uiso   1.00
C252   C     0.17100   0.69018   1.00325   0.00000  Uiso   1.00
C253   C     0.13972   0.68014   0.96249   0.00000  Uiso   1.00
C254   C     0.10669   0.64351   0.96124   0.00000  Uiso   1.00
C255   C     0.10445   0.61603  -0.00007   0.00000  Uiso   1.00
C256   C     0.13581   0.62613   0.04065   0.00000  Uiso   1.00
C257   C     0.16859   0.66283   0.04258   0.00000  Uiso   1.00
H258   H     0.33878   0.82138   0.91215   0.00000  Uiso   1.00
H259   H     0.40274   0.88018   0.91162   0.00000  Uiso   1.00
H260   H     0.36562   0.92011   0.09030   0.00000  Uiso   1.00
H261   H     0.30138   0.86098   0.09073   0.00000  Uiso   1.00
H262   H     0.27356   0.79441   0.11585   0.00000  Uiso   1.00
H263   H     0.21246   0.73251   0.11675   0.00000  Uiso   1.00
H264   H     0.20985   0.73481   0.88997   0.00000  Uiso   1.00
H265   H     0.27076   0.79678   0.88921   0.00000  Uiso   1.00
H266   H     0.14072   0.70072   0.93202   0.00000  Uiso   1.00
H267   H     0.08307   0.63665   0.92927   0.00000  Uiso   1.00
H268   H     0.13498   0.60570   0.07125   0.00000  Uiso   1.00
H269   H     0.19244   0.66969   0.07383   0.00000  Uiso   1.00
C270   C     0.56288   0.84893  -0.09192   0.00000  Uiso   1.00
C271   C     0.57160   0.86893  -0.02723   0.00000  Uiso   1.00
C272   C     0.56601   0.89716  -0.01626   0.00000  Uiso   1.00
C273   C     0.55156   0.90615  -0.06961   0.00000  Uiso   1.00
C274   C     0.54390   0.88709   0.86474   0.00000  Uiso   1.00
C275   C     0.54933   0.85852   0.85381   0.00000  Uiso   1.00
C276   C     0.56621   0.81709  -0.10043   0.00000  Uiso   1.00
C277   C     0.53681   0.78332   0.86836   0.00000  Uiso   1.00
C278   C     0.53757   0.75193   0.86869   0.00000  Uiso   1.00
C279   C     0.56786   0.75380  -0.10003   0.00000  Uiso   1.00
C280   C     0.59810   0.78803  -0.07175   0.00000  Uiso   1.00
C281   C     0.59729   0.81929  -0.07193   0.00000  Uiso   1.00
C282   C     0.56624   0.71963  -0.09110   0.00000  Uiso   1.00
C283   C     0.57589   0.71368  -0.02643   0.00000  Uiso   1.00
C284   C     0.57117   0.68033  -0.01453   0.00000  Uiso   1.00
C285   C     0.55658   0.65205  -0.06690   0.00000  Uiso   1.00
C286   C     0.54825   0.65830   0.86732   0.00000  Uiso   1.00
C287   C     0.55300   0.69184   0.85532   0.00000  Uiso   1.00
H288   H     0.58146   0.86187   0.01604   0.00000  Uiso   1.00
H289   H     0.57215   0.91138   0.03492   0.00000  Uiso   1.00
H290   H     0.53291   0.89366   0.82265   0.00000  Uiso   1.00
H291   H     0.54264   0.84373   0.80324   0.00000  Uiso   1.00
H292   H     0.51221   0.78064   0.84699   0.00000  Uiso   1.00
H293   H     0.51345   0.72579   0.84775   0.00000  Uiso   1.00
H294   H     0.62200   0.79043  -0.04788   0.00000  Uiso   1.00
H295   H     0.62060   0.84503  -0.04821   0.00000  Uiso   1.00
H296   H     0.58562   0.73423   0.01628   0.00000  Uiso   1.00
H297   H     0.57773   0.67624   0.03674   0.00000  Uiso   1.00
H298   H     0.53722   0.63697   0.82587   0.00000  Uiso   1.00
H299   H     0.54589   0.69589   0.80459   0.00000  Uiso   1.00
C300   C     0.44668   0.29050   1.09081   0.00000  Uiso   1.00
C301   C     0.46075   0.31858   0.14387   0.00000  Uiso   1.00
C302   C     0.46547   0.35212   0.13197   0.00000  Uiso   1.00
C303   C     0.45639   0.35812   1.06675   0.00000  Uiso   1.00
C304   C     0.44096   0.32953   1.01492   0.00000  Uiso   1.00
C305   C     0.43617   0.29613   1.02680   0.00000  Uiso   1.00
C306   C     0.44471   0.25615   1.09982   0.00000  Uiso   1.00
C307   C     0.41359   0.22183   1.07369   0.00000  Uiso   1.00
C308   C     0.41371   0.19021   1.07425   0.00000  Uiso   1.00
C309   C     0.44505   0.19212   1.10077   0.00000  Uiso   1.00
C310   C     0.47540   0.22605   0.12994   0.00000  Uiso   1.00
C311   C     0.47527   0.25779   0.12940   0.00000  Uiso   1.00
C312   C     0.44748   0.15970   1.09241   0.00000  Uiso   1.00
C313   C     0.46221   0.15067   0.14548   0.00000  Uiso   1.00
C314   C     0.46699   0.12170   0.13432   0.00000  Uiso   1.00
C315   C     0.45748   0.10160   1.06975   0.00000  Uiso   1.00
C316   C     0.44152   0.10979   1.01787   0.00000  Uiso   1.00
C317   C     0.43660   0.13846   1.02905   0.00000  Uiso   1.00
H318   H     0.46841   0.31471   0.19419   0.00000  Uiso   1.00
H319   H     0.47705   0.37363   0.17308   0.00000  Uiso   1.00
H320   H     0.43365   0.33338   0.96419   0.00000  Uiso   1.00
H321   H     0.42558   0.27524   0.98460   0.00000  Uiso   1.00
H322   H     0.38943   0.21961   1.05137   0.00000  Uiso   1.00
H323   H     0.38961   0.16437   1.05239   0.00000  Uiso   1.00
H324   H     0.50018   0.22852   0.14993   0.00000  Uiso   1.00
H325   H     0.49998   0.28396   0.14893   0.00000  Uiso   1.00
H326   H     0.47033   0.16622   0.19523   0.00000  Uiso   1.00
H327   H     0.47901   0.11566   0.17539   0.00000  Uiso   1.00
H328   H     0.43367   0.09458   0.96770   0.00000  Uiso   1.00
H329   H     0.42555   0.14487   0.98680   0.00000  Uiso   1.00
loop_
_geom_bond_atom_site_label_1
_geom_bond_atom_site_label_2
_geom_bond_distance
_geom_bond_site_symmetry_2
_ccdc_geom_bond_type
Y0     O2      2.250   .     S
Y0     O6      2.248   .     S
Y0     O9      2.262   .     S
Y0     O10     2.271   .     S
Y0     O11     2.279   .     S
Y0     O3      2.262   1_554 S
Y0     O7      2.268   1_554 S
Y1     O3      2.261   .     S
Y1     O5      2.271   .     S
Y1     O8      2.279   .     S
Y1     O13     2.248   .     S
Y1     O15     2.249   .     S
Y1     O9      2.263   1_556 S
Y1     O16     2.268   1_556 S
O2     C12     1.283   1_554 A
O3     C14     1.372   .     S
O3     Y0      2.262   1_556 S
C4     O15     1.258   .     A
C4     C303    1.475   .     S
C4     O16     1.262   1_556 A
O5     C14     1.210   .     D
O6     C17     1.258   .     A
O7     Y0      2.268   1_556 S
O7     C17     1.262   1_556 A
O8     C12     1.287   .     A
O9     C19     1.372   .     S
O9     Y1      2.263   1_554 S
O10    C19     1.210   .     D
O11    C18     1.285   .     A
C12    O2      1.283   1_556 A
C12    C225    1.480   1_556 S
O13    C18     1.286   1_556 A
C14    C75     1.475   .     S
O16    Y1      2.268   1_554 S
O16    C4      1.262   1_554 A
C17    C285    1.475   .     S
C17    O7      1.262   1_554 A
C18    O13     1.286   1_554 A
C18    C153    1.479   1_554 S
C19    C63     1.475   .     S
Y20    O26     2.244   .     S
Y20    O30     2.267   .     S
Y20    O31     2.283   .     S
Y20    O22     2.251   1_655 S
Y20    O23     2.266   1_554 S
Y20    O27     2.276   1_554 S
Y20    O29     2.264   1_655 S
Y21    O25     2.266   .     S
Y21    O28     2.284   .     S
Y21    O35     2.244   .     S
Y21    O23     2.264   1_455 S
Y21    O29     2.265   1_556 S
Y21    O33     2.253   1_455 S
Y21    O36     2.276   1_556 S
O22    Y20     2.251   1_455 S
O22    C32     1.286   1_554 A
O23    Y20     2.266   1_556 S
O23    Y21     2.264   1_655 S
O23    C34     1.373   1_655 S
C24    O35     1.257   .     A
C24    C165    1.476   .     S
C24    O36     1.263   1_556 A
O25    C34     1.209   .     D
O26    C37     1.257   .     A
O27    Y20     2.276   1_556 S
O27    C37     1.263   1_556 A
O28    C32     1.285   .     A
O29    C39     1.372   .     S
O29    Y20     2.264   1_455 S
O29    Y21     2.265   1_554 S
O30    C39     1.209   1_655 D
O31    C38     1.289   .     A
C32    O22     1.286   1_556 A
C32    C255    1.483   1_556 S
O33    Y21     2.253   1_655 S
O33    C38     1.283   1_556 A
C34    C93     1.472   .     S
C34    O23     1.373   1_455 S
O36    Y21     2.276   1_554 S
O36    C24     1.263   1_554 A
C37    C213    1.476   .     S
C37    O27     1.263   1_554 A
C38    C183    1.482   .     S
C38    O33     1.283   1_554 A
C39    C105    1.472   .     S
C39    O30     1.209   1_455 D
Y40    O46     2.244   .     S
Y40    O50     2.262   .     S
Y40    O51     2.280   .     S
Y40    O42     2.251   1_545 S
Y40    O43     2.265   1_556 S
Y40    O47     2.274   1_556 S
Y40    O49     2.264   1_545 S
Y41    O45     2.263   .     S
Y41    O48     2.278   .     S
Y41    O55     2.241   .     S
Y41    O43     2.264   1_565 S
Y41    O49     2.265   1_554 S
Y41    O53     2.250   1_565 S
Y41    O56     2.275   1_554 S
O42    Y40     2.251   1_565 S
O42    C52     1.284   1_556 A
O43    C54     1.373   .     S
O43    Y40     2.265   1_554 S
O43    Y41     2.264   1_545 S
C44    O55     1.257   .     A
C44    C273    1.475   .     S
C44    O56     1.263   1_554 A
O45    C54     1.208   1_565 D
O46    C57     1.256   .     A
O47    Y40     2.274   1_554 S
O47    C57     1.264   1_554 A
O48    C52     1.287   .     A
O49    Y40     2.264   1_565 S
O49    Y41     2.265   1_556 S
O49    C59     1.373   1_565 S
O50    C59     1.208   .     D
O51    C58     1.287   .     A
C52    O42     1.284   1_554 A
C52    C243    1.479   1_554 S
O53    Y41     2.250   1_545 S
O53    C58     1.284   1_554 A
C54    C123    1.470   .     S
C54    O45     1.208   1_545 D
O56    Y41     2.275   1_556 S
O56    C44     1.263   1_556 A
C57    C315    1.475   .     S
C57    O47     1.264   1_556 A
C58    O53     1.284   1_556 A
C58    C195    1.479   1_556 S
C59    C135    1.470   .     S
C59    O49     1.373   1_545 S
C60    C61     1.407   .     A
C60    C65     1.408   .     A
C60    C66     1.489   .     S
C61    C62     1.398   .     A
C61    H78     1.083   .     S
C62    C63     1.404   .     A
C62    H79     1.083   .     S
C63    C64     1.403   .     A
C64    C65     1.399   .     A
C64    H80     1.084   .     S
C65    H81     1.083   .     S
C66    C67     1.407   .     A
C66    C71     1.406   .     A
C67    C68     1.398   .     A
C67    H82     1.083   .     S
C68    C69     1.407   .     A
C68    H83     1.083   .     S
C69    C70     1.406   .     A
C69    C72     1.489   .     S
C70    C71     1.398   .     A
C70    H84     1.083   .     S
C71    H85     1.082   .     S
C72    C73     1.408   .     A
C72    C77     1.407   .     A
C73    C74     1.399   .     A
C73    H86     1.083   .     S
C74    C75     1.403   .     A
C74    H87     1.084   .     S
C75    C76     1.404   .     A
C76    C77     1.398   .     A
C76    H88     1.083   .     S
C77    H89     1.083   .     S
C90    C95     1.406   .     A
C90    C96     1.485   .     S
C90    C91     1.406   1_455 A
C91    C92     1.397   .     A
C91    H108    1.083   .     S
C91    C90     1.406   1_655 A
C92    H109    1.083   .     S
C92    C93     1.404   1_655 A
C93    C94     1.402   .     A
C93    C92     1.404   1_455 A
C94    C95     1.398   .     A
C94    H110    1.083   .     S
C95    H111    1.083   .     S
C96    C97     1.404   .     A
C96    C101    1.406   1_455 A
C97    C98     1.398   .     A
C97    H112    1.083   .     S
C98    C99     1.406   .     A
C98    H113    1.082   .     S
C99    C102    1.485   .     S
C99    C100    1.404   1_455 A
C100   C101    1.398   .     A
C100   H114    1.083   .     S
C100   C99     1.404   1_655 A
C101   H115    1.082   .     S
C101   C96     1.406   1_655 A
C102   C107    1.406   .     A
C102   C103    1.407   1_455 A
C103   C104    1.398   .     A
C103   H116    1.083   .     S
C103   C102    1.407   1_655 A
C104   H117    1.083   .     S
C104   C105    1.402   1_655 A
C105   C106    1.404   .     A
C105   C104    1.402   1_455 A
C106   C107    1.397   .     A
C106   H118    1.083   .     S
C107   H119    1.083   .     S
C120   C125    1.405   .     A
C120   C126    1.480   .     S
C120   C121    1.406   1_545 A
C121   C122    1.397   .     A
C121   H138    1.083   .     S
C121   C120    1.406   1_565 A
C122   H139    1.083   .     S
C122   C123    1.402   1_565 A
C123   C124    1.404   .     A
C123   C122    1.402   1_545 A
C124   C125    1.395   .     A
C124   H140    1.083   .     S
C125   H141    1.083   .     S
C126   C127    1.404   .     A
C126   C131    1.406   1_545 A
C127   C128    1.396   .     A
C127   H142    1.083   .     S
C128   C129    1.406   .     A
C128   H143    1.083   .     S
C129   C132    1.480   .     S
C129   C130    1.404   1_545 A
C130   C131    1.395   .     A
C130   H144    1.083   .     S
C130   C129    1.404   1_565 A
C131   H145    1.083   .     S
C131   C126    1.406   1_565 A
C132   C137    1.406   .     A
C132   C133    1.405   1_545 A
C133   C134    1.395   .     A
C133   H146    1.083   .     S
C133   C132    1.405   1_565 A
C134   H147    1.083   .     S
C134   C135    1.404   1_565 A
C135   C136    1.402   .     A
C135   C134    1.404   1_545 A
C136   C137    1.397   .     A
C136   H148    1.083   .     S
C137   H149    1.083   .     S
C150   C155    1.404   .     A
C150   C156    1.483   .     S
C150   C151    1.406   1_556 A
C151   C152    1.400   .     A
C151   H168    1.083   .     S
C151   C150    1.406   1_554 A
C152   H169    1.084   .     S
C152   C153    1.406   1_554 A
C153   C154    1.406   .     A
C153   C152    1.406   1_556 A
C153   C18     1.479   1_556 S
C154   C155    1.393   .     A
C154   H170    1.082   .     S
C155   H171    1.083   .     S
C156   C157    1.404   .     A
C156   C161    1.405   1_556 A
C157   C158    1.395   .     A
C157   H172    1.083   .     S
C158   C159    1.406   .     A
C158   H173    1.083   .     S
C159   C162    1.485   .     S
C159   C160    1.405   1_556 A
C160   C161    1.400   .     A
C160   H174    1.083   .     S
C160   C159    1.405   1_554 A
C161   H175    1.083   .     S
C161   C156    1.405   1_554 A
C162   C167    1.404   .     A
C162   C163    1.408   1_556 A
C163   C164    1.402   .     A
C163   H176    1.083   .     S
C163   C162    1.408   1_554 A
C164   H177    1.083   .     S
C164   C165    1.404   1_554 A
C165   C166    1.404   .     A
C165   C164    1.404   1_556 A
C166   C167    1.394   .     A
C166   H178    1.083   .     S
C167   H179    1.083   .     S
C180   C185    1.405   .     A
C180   C186    1.483   .     S
C180   C181    1.405   1_554 A
C181   C182    1.397   .     A
C181   H198    1.083   .     S
C181   C180    1.405   1_556 A
C182   H199    1.083   .     S
C182   C183    1.405   1_556 A
C183   C184    1.407   .     A
C183   C182    1.405   1_554 A
C184   C185    1.400   .     A
C184   H200    1.083   .     S
C185   H201    1.083   .     S
C186   C187    1.405   .     A
C186   C191    1.406   1_554 A
C187   C188    1.398   .     A
C187   H202    1.083   .     S
C188   C189    1.405   .     A
C188   H203    1.083   .     S
C189   C192    1.482   .     S
C189   C190    1.405   1_554 A
C190   C191    1.398   .     A
C190   H204    1.083   .     S
C190   C189    1.405   1_556 A
C191   H205    1.083   .     S
C191   C186    1.406   1_556 A
C192   C197    1.404   .     A
C192   C193    1.406   1_554 A
C193   C194    1.400   .     A
C193   H206    1.083   .     S
C193   C192    1.406   1_556 A
C194   H207    1.083   .     S
C194   C195    1.406   1_556 A
C195   C196    1.405   .     A
C195   C194    1.406   1_554 A
C195   C58     1.479   1_554 S
C196   C197    1.396   .     A
C196   H208    1.083   .     S
C197   H209    1.083   .     S
C210   C215    1.404   .     A
C210   C216    1.485   .     S
C210   C211    1.408   1_554 A
C211   C212    1.402   .     A
C211   H228    1.083   .     S
C211   C210    1.408   1_556 A
C212   H229    1.083   .     S
C212   C213    1.404   1_556 A
C213   C214    1.404   .     A
C213   C212    1.404   1_554 A
C214   C215    1.394   .     A
C214   H230    1.083   .     S
C215   H231    1.083   .     S
C216   C217    1.406   .     A
C216   C221    1.405   1_554 A
C217   C218    1.395   .     A
C217   H232    1.083   .     S
C218   C219    1.404   .     A
C218   H233    1.083   .     S
C219   C222    1.483   .     S
C219   C220    1.405   1_554 A
C220   C221    1.400   .     A
C220   H234    1.083   .     S
C220   C219    1.405   1_556 A
C221   H235    1.083   .     S
C221   C216    1.405   1_556 A
C222   C227    1.404   .     A
C222   C223    1.405   1_554 A
C223   C224    1.400   .     A
C223   H236    1.083   .     S
C223   C222    1.405   1_556 A
C224   H237    1.083   .     S
C224   C225    1.407   1_556 A
C225   C226    1.404   .     A
C225   C224    1.407   1_554 A
C225   C12     1.480   1_554 S
C226   C227    1.394   .     A
C226   H238    1.083   .     S
C227   H239    1.082   .     S
C240   C241    1.404   .     A
C240   C246    1.483   .     S
C240   C245    1.406   1_556 A
C241   C242    1.396   .     A
C241   H258    1.083   .     S
C242   C243    1.405   .     A
C242   H259    1.083   .     S
C243   C244    1.406   1_556 A
C243   C52     1.479   1_556 S
C244   C245    1.400   .     A
C244   H260    1.083   .     S
C244   C243    1.406   1_554 A
C245   H261    1.083   .     S
C245   C240    1.406   1_554 A
C246   C251    1.405   .     A
C246   C247    1.404   1_556 A
C247   C248    1.398   .     A
C247   H262    1.083   .     S
C247   C246    1.404   1_554 A
C248   H263    1.083   .     S
C248   C249    1.406   1_554 A
C249   C250    1.405   .     A
C249   C252    1.484   .     S
C249   C248    1.406   1_556 A
C250   C251    1.398   .     A
C250   H264    1.083   .     S
C251   H265    1.083   .     S
C252   C253    1.405   .     A
C252   C257    1.405   1_556 A
C253   C254    1.399   .     A
C253   H266    1.083   .     S
C254   H267    1.083   .     S
C254   C255    1.406   1_556 A
C255   C256    1.406   .     A
C255   C254    1.406   1_554 A
C255   C32     1.483   1_554 S
C256   C257    1.398   .     A
C256   H268    1.082   .     S
C257   H269    1.083   .     S
C257   C252    1.405   1_554 A
C270   C271    1.404   .     A
C270   C276    1.484   .     S
C270   C275    1.408   1_554 A
C271   C272    1.392   .     A
C271   H288    1.083   .     S
C272   C273    1.403   .     A
C272   H289    1.084   .     S
C273   C274    1.405   1_554 A
C274   C275    1.402   .     A
C274   H290    1.083   .     S
C274   C273    1.405   1_556 A
C275   H291    1.083   .     S
C275   C270    1.408   1_556 A
C276   C281    1.405   .     A
C276   C277    1.406   1_554 A
C277   C278    1.399   .     A
C277   H292    1.083   .     S
C277   C276    1.406   1_556 A
C278   H293    1.083   .     S
C278   C279    1.407   1_556 A
C279   C280    1.405   .     A
C279   C282    1.485   .     S
C279   C278    1.407   1_554 A
C280   C281    1.395   .     A
C280   H294    1.083   .     S
C281   H295    1.083   .     S
C282   C283    1.405   .     A
C282   C287    1.407   1_554 A
C283   C284    1.393   .     A
C283   H296    1.083   .     S
C284   C285    1.403   .     A
C284   H297    1.083   .     S
C285   C286    1.404   1_554 A
C286   C287    1.401   .     A
C286   H298    1.083   .     S
C286   C285    1.404   1_556 A
C287   H299    1.083   .     S
C287   C282    1.407   1_556 A
C300   C305    1.405   .     A
C300   C306    1.485   .     S
C300   C301    1.407   1_556 A
C301   C302    1.401   .     A
C301   H318    1.083   .     S
C301   C300    1.407   1_554 A
C302   H319    1.083   .     S
C302   C303    1.404   1_554 A
C303   C304    1.403   .     A
C303   C302    1.404   1_556 A
C304   C305    1.394   .     A
C304   H320    1.083   .     S
C305   H321    1.083   .     S
C306   C307    1.405   .     A
C306   C311    1.407   1_556 A
C307   C308    1.395   .     A
C307   H322    1.083   .     S
C308   C309    1.406   .     A
C308   H323    1.083   .     S
C309   C312    1.485   .     S
C309   C310    1.406   1_556 A
C310   C311    1.400   .     A
C310   H324    1.083   .     S
C310   C309    1.406   1_554 A
C311   H325    1.083   .     S
C311   C306    1.407   1_554 A
C312   C317    1.405   .     A
C312   C313    1.408   1_556 A
C313   C314    1.402   .     A
C313   H326    1.083   .     S
C313   C312    1.408   1_554 A
C314   H327    1.083   .     S
C314   C315    1.404   1_554 A
C315   C316    1.404   .     A
C315   C314    1.404   1_556 A
C316   C317    1.393   .     A
C316   H328    1.083   .     S
C317   H329    1.083   .     S
