data_kag+N173+E1
_audit_creation_date              2025-01-21
_audit_creation_method            'Materials Studio'
_symmetry_space_group_name_H-M    'P1'
_symmetry_Int_Tables_number       1
_symmetry_cell_setting            triclinic
loop_
_symmetry_equiv_pos_as_xyz
  x,y,z
_cell_length_a                    42.6432
_cell_length_b                    42.6626
_cell_length_c                    19.1733
_cell_angle_alpha                 95.0527
_cell_angle_beta                  97.5829
_cell_angle_gamma                 119.8804
loop_
_atom_site_label
_atom_site_type_symbol
_atom_site_fract_x
_atom_site_fract_y
_atom_site_fract_z
_atom_site_U_iso_or_equiv
_atom_site_adp_type
_atom_site_occupancy
Gd0    Gd    0.50295   0.46793   0.99327   0.00000  Uiso   1.00
Gd1    Gd    0.55981   0.58210   0.01348   0.00000  Uiso   1.00
O2     O     0.56430   0.57259   0.12523   0.00000  Uiso   1.00
O3     O     0.53010   0.51426   0.08537   0.00000  Uiso   1.00
O4     O     0.47474   0.49606   0.03604   0.00000  Uiso   1.00
O5     O     0.49698   0.54761   0.98744   0.00000  Uiso   1.00
O6     O     0.52312   0.43185   0.96416   0.00000  Uiso   1.00
O7     O     0.50150   0.42753   0.06139   0.00000  Uiso   1.00
O8     O     0.51152   0.49469   0.89736   0.00000  Uiso   1.00
C9     C     0.51454   0.41502   1.01676   0.00000  Uiso   1.00
O10    O     0.51331   0.54809   0.91845   0.00000  Uiso   1.00
O11    O     0.56334   0.50635   1.04265   0.00000  Uiso   1.00
C12    C     0.47221   0.52234   0.01427   0.00000  Uiso   1.00
O13    O     0.58240   0.54815  -0.02809   0.00000  Uiso   1.00
O14    O     0.54406   0.62253   0.04571   0.00000  Uiso   1.00
O15    O     0.56581   0.62637   0.95104   0.00000  Uiso   1.00
C16    C     0.54557   0.54069   0.13806   0.00000  Uiso   1.00
C17    C     0.55357   0.63981  -0.00539   0.00000  Uiso   1.00
C18    C     0.58689   0.52627   0.00715   0.00000  Uiso   1.00
C19    C     0.51190   0.52222   0.87615   0.00000  Uiso   1.00
Gd20   Gd    0.00182   0.55706   1.00407   0.00000  Uiso   1.00
Gd21   Gd    0.06805   0.50229   0.02235   0.00000  Uiso   1.00
O22    O     0.06091   0.51666   0.13162   0.00000  Uiso   1.00
O23    O     0.03114   0.53758   0.07609   0.00000  Uiso   1.00
O24    O     0.06156   0.58367   0.06362   0.00000  Uiso   1.00
O25    O     0.08873   0.56066   1.00164   0.00000  Uiso   1.00
O26    O     0.94552   0.54240   0.96141   0.00000  Uiso   1.00
O27    O     0.96467   0.55602   0.07671   0.00000  Uiso   1.00
O28    O     0.02007   0.55300   0.90032   0.00000  Uiso   1.00
C29    C     0.93798   0.54616   0.02292   0.00000  Uiso   1.00
O30    O     0.04814   0.52423   0.93524   0.00000  Uiso   1.00
O31    O     0.97613   0.49572   0.99821   0.00000  Uiso   1.00
C32    C     0.08814   0.58803   0.03330   0.00000  Uiso   1.00
O33    O     0.00651   0.46438   0.99371   0.00000  Uiso   1.00
O34    O     0.12811   0.53179   0.03749   0.00000  Uiso   1.00
O35    O     0.09618   0.49110   0.94190   0.00000  Uiso   1.00
C36    C     0.04021   0.52943   0.13451   0.00000  Uiso   1.00
C37    C     0.12827   0.51432   0.98028   0.00000  Uiso   1.00
C38    C     0.97733   0.46613   0.99395   0.00000  Uiso   1.00
C39    C     0.03685   0.53667   0.88589   0.00000  Uiso   1.00
Gd40   Gd    0.47343   0.99819   0.99455   0.00000  Uiso   1.00
Gd41   Gd    0.59253   0.06379   0.03563   0.00000  Uiso   1.00
O42    O     0.56287   0.05452   0.12626   0.00000  Uiso   1.00
O43    O     0.51398  -0.00100   0.08278   0.00000  Uiso   1.00
O44    O     0.50413   0.05807   0.04456   0.00000  Uiso   1.00
O45    O     0.55128   0.07798   0.98853   0.00000  Uiso   1.00
O46    O     0.43352   0.93874   0.95986   0.00000  Uiso   1.00
O47    O     0.43536   0.96388   0.06307   0.00000  Uiso   1.00
O48    O     0.48904   0.01038   0.88870   0.00000  Uiso   1.00
C49    C     0.41960   0.93466   1.01550   0.00000  Uiso   1.00
O50    O     0.54749   0.04073   0.93701   0.00000  Uiso   1.00
O51    O     0.51014   0.97289   1.00058   0.00000  Uiso   1.00
C52    C     0.53061   0.08381   0.02313   0.00000  Uiso   1.00
O53    O     0.57221   1.00400   0.00574   0.00000  Uiso   1.00
O54    O     0.62332   0.12378   0.04508   0.00000  Uiso   1.00
O55    O     0.63217   0.09103   0.96618   0.00000  Uiso   1.00
C56    C     0.53304   0.02672   0.13327   0.00000  Uiso   1.00
C57    C     0.64161   0.12318  -0.00223   0.00000  Uiso   1.00
C58    C     0.54104   0.97446   0.99877   0.00000  Uiso   1.00
C59    C     0.52221   0.02777   0.88077   0.00000  Uiso   1.00
C60    C     0.52498   0.53003   0.35128   0.00000  Uiso   1.00
C61    C     0.51140   0.49818   0.29873   0.00000  Uiso   1.00
C62    C     0.51805   0.50106   0.22912   0.00000  Uiso   1.00
C63    C     0.53908   0.53570   0.21090   0.00000  Uiso   1.00
C64    C     0.55170   0.56710   0.26187   0.00000  Uiso   1.00
C65    C     0.54450   0.56439   0.32990   0.00000  Uiso   1.00
C66    C     0.52059   0.52821   0.42797   0.00000  Uiso   1.00
C67    C     0.53713   0.56053   0.47991   0.00000  Uiso   1.00
C68    C     0.53582   0.55944   0.55166   0.00000  Uiso   1.00
C69    C     0.51746   0.52597   0.57623   0.00000  Uiso   1.00
C70    C     0.49960   0.49347   0.52416   0.00000  Uiso   1.00
C71    C     0.50122   0.49459   0.45187   0.00000  Uiso   1.00
C72    C     0.51653   0.52529   0.65453   0.00000  Uiso   1.00
C73    C     0.50041   0.49179   0.68023   0.00000  Uiso   1.00
C74    C     0.49746   0.49104   0.75147   0.00000  Uiso   1.00
C75    C     0.51149   0.52368   0.80009   0.00000  Uiso   1.00
C76    C     0.52886   0.55722   0.77666   0.00000  Uiso   1.00
C77    C     0.53162   0.55813   0.70517   0.00000  Uiso   1.00
H78    H     0.49556   0.47085   0.30988   0.00000  Uiso   1.00
H79    H     0.50674   0.47630   0.18964   0.00000  Uiso   1.00
H80    H     0.56684   0.59429   0.24862   0.00000  Uiso   1.00
H81    H     0.55489   0.59028   0.36388   0.00000  Uiso   1.00
H82    H     0.55196   0.58773   0.46791   0.00000  Uiso   1.00
H83    H     0.54981   0.58577   0.58654   0.00000  Uiso   1.00
H84    H     0.48382   0.46659   0.53748   0.00000  Uiso   1.00
H85    H     0.48695   0.46857   0.41593   0.00000  Uiso   1.00
H86    H     0.49013   0.46568   0.64658   0.00000  Uiso   1.00
H87    H     0.48470   0.46464   0.76863   0.00000  Uiso   1.00
H88    H     0.54151   0.58276   0.81435   0.00000  Uiso   1.00
H89    H     0.54591   0.58513   0.69201   0.00000  Uiso   1.00
C90    C     0.04849   0.53100   0.66479   0.00000  Uiso   1.00
C91    C     0.02933   0.49841   0.69347   0.00000  Uiso   1.00
C92    C     0.02768   0.49981   0.76669   0.00000  Uiso   1.00
C93    C     0.04412   0.53371   0.81264   0.00000  Uiso   1.00
C94    C     0.06353   0.56578   0.78528   0.00000  Uiso   1.00
C95    C     0.06712   0.56448   0.71407   0.00000  Uiso   1.00
C96    C     0.04686   0.53094   0.58470   0.00000  Uiso   1.00
C97    C     0.06423   0.56406   0.55754   0.00000  Uiso   1.00
C98    C     0.05963   0.56474   0.48419   0.00000  Uiso   1.00
C99    C     0.03787   0.53230   0.43280   0.00000  Uiso   1.00
C100   C     0.02222   0.49889   0.45955   0.00000  Uiso   1.00
C101   C     0.02651   0.49826   0.53335   0.00000  Uiso   1.00
C102   C     0.03258   0.53333   0.35280   0.00000  Uiso   1.00
C103   C     0.00886   0.50095   0.30156   0.00000  Uiso   1.00
C104   C     0.00747   0.50099   0.22817   0.00000  Uiso   1.00
C105   C     0.02897   0.53328   0.20255   0.00000  Uiso   1.00
C106   C     0.05030   0.56619   0.25174   0.00000  Uiso   1.00
C107   C     0.05209   0.56634   0.32556   0.00000  Uiso   1.00
H108   H     0.01433   0.47158   0.66023   0.00000  Uiso   1.00
H109   H     0.01163   0.47455   0.78630   0.00000  Uiso   1.00
H110   H     0.07490   0.59233   0.81799   0.00000  Uiso   1.00
H111   H     0.08343   0.59069   0.69904   0.00000  Uiso   1.00
H112   H     0.08140   0.59047   0.59155   0.00000  Uiso   1.00
H113   H     0.07332   0.59149   0.46933   0.00000  Uiso   1.00
H114   H     0.00635   0.47255   0.42452   0.00000  Uiso   1.00
H115   H     0.01323   0.47165   0.54885   0.00000  Uiso   1.00
H116   H    -0.00782   0.47478   0.31684   0.00000  Uiso   1.00
H117   H    -0.00815   0.47494   0.19156   0.00000  Uiso   1.00
H118   H     0.06816   0.59138   0.23366   0.00000  Uiso   1.00
H119   H     0.07056   0.59255   0.36003   0.00000  Uiso   1.00
C120   C     0.51621   0.02893   0.34865   0.00000  Uiso   1.00
C121   C     0.50064   0.99531   0.30019   0.00000  Uiso   1.00
C122   C     0.50325   0.99447   0.22837   0.00000  Uiso   1.00
C123   C     0.52222   0.02710   0.20276   0.00000  Uiso   1.00
C124   C     0.53472   0.06059   0.24757   0.00000  Uiso   1.00
C125   C     0.53143   0.06153   0.31925   0.00000  Uiso   1.00
C126   C     0.51847   0.02984   0.42866   0.00000  Uiso   1.00
C127   C     0.53707   0.06318   0.47831   0.00000  Uiso   1.00
C128   C     0.54135   0.06376   0.55235   0.00000  Uiso   1.00
C129   C     0.52725   0.03105   0.58108   0.00000  Uiso   1.00
C130   C     0.50795   0.99779   0.53111   0.00000  Uiso   1.00
C131   C     0.50370   0.99722   0.45744   0.00000  Uiso   1.00
C132   C     0.53118   0.03137   0.66138   0.00000  Uiso   1.00
C133   C     0.51730   0.99823   0.68890   0.00000  Uiso   1.00
C134   C     0.51663   0.99784   0.76140   0.00000  Uiso   1.00
C135   C     0.53028   0.03035   0.80918   0.00000  Uiso   1.00
C136   C     0.54762   0.06389   0.78541   0.00000  Uiso   1.00
C137   C     0.54776   0.06441   0.71214   0.00000  Uiso   1.00
H138   H     0.48751   0.96901   0.31633   0.00000  Uiso   1.00
H139   H     0.49263   0.96832   0.19400   0.00000  Uiso   1.00
H140   H     0.54822   0.08631   0.22772   0.00000  Uiso   1.00
H141   H     0.54216   0.08828   0.35074   0.00000  Uiso   1.00
H142   H     0.54908   0.08953   0.46161   0.00000  Uiso   1.00
H143   H     0.55606   0.09047   0.58599   0.00000  Uiso   1.00
H144   H     0.49543   0.97130   0.54702   0.00000  Uiso   1.00
H145   H     0.48863   0.97040   0.42436   0.00000  Uiso   1.00
H146   H     0.50582   0.97184   0.65574   0.00000  Uiso   1.00
H147   H     0.50397   0.97182   0.77977   0.00000  Uiso   1.00
H148   H     0.55895   0.08960   0.82204   0.00000  Uiso   1.00
H149   H     0.56001   0.09099   0.69650   0.00000  Uiso   1.00
C150   C     0.37166   0.52436   0.98982   0.00000  Uiso   1.00
C151   C     0.37265   0.49383   0.95710   0.00000  Uiso   1.00
C152   C     0.40496   0.49251   0.96793   0.00000  Uiso   1.00
C153   C     0.43742   0.52172   0.01081   0.00000  Uiso   1.00
C154   C     0.43745   0.55248   0.04244   0.00000  Uiso   1.00
C155   C     0.40514   0.55384   0.03250   0.00000  Uiso   1.00
C156   C     0.33623   0.52517   0.98045   0.00000  Uiso   1.00
C157   C     0.33427   0.55390   0.01798   0.00000  Uiso   1.00
C158   C     0.30124   0.55380   0.01166   0.00000  Uiso   1.00
C159   C     0.26811   0.52485   0.96768   0.00000  Uiso   1.00
C160   C     0.27025   0.49649   0.92921   0.00000  Uiso   1.00
C161   C     0.30335   0.49677   0.93501   0.00000  Uiso   1.00
C162   C     0.23187   0.52381   0.96343   0.00000  Uiso   1.00
C163   C     0.19824   0.49416   0.92121   0.00000  Uiso   1.00
C164   C     0.16449   0.49214   0.92205   0.00000  Uiso   1.00
C165   C     0.16327   0.51949   0.96518   0.00000  Uiso   1.00
C166   C     0.19633   0.54984   0.00416   0.00000  Uiso   1.00
C167   C     0.22992   0.55201   0.00359   0.00000  Uiso   1.00
H168   H     0.34906   0.47059   0.92207   0.00000  Uiso   1.00
H169   H     0.40494   0.46922   0.94044   0.00000  Uiso   1.00
H170   H     0.46268   0.57571   0.07453   0.00000  Uiso   1.00
H171   H     0.40750   0.57865   0.05807   0.00000  Uiso   1.00
H172   H     0.35776   0.57689   0.05380   0.00000  Uiso   1.00
H173   H     0.30276   0.57687   0.04304   0.00000  Uiso   1.00
H174   H     0.24664   0.47326   0.89422   0.00000  Uiso   1.00
H175   H     0.30206   0.47398   0.90310   0.00000  Uiso   1.00
H176   H     0.19683   0.47144   0.88868   0.00000  Uiso   1.00
H177   H     0.13921   0.46816   0.89206   0.00000  Uiso   1.00
H178   H     0.19611   0.57141   0.03808   0.00000  Uiso   1.00
H179   H     0.25365   0.57574   0.03720   0.00000  Uiso   1.00
C180   C     0.87663   0.36559   0.00164   0.00000  Uiso   1.00
C181   C     0.87686   0.39853   0.99536   0.00000  Uiso   1.00
C182   C     0.90913   0.43073   0.99107   0.00000  Uiso   1.00
C183   C     0.94243   0.43137   0.99271   0.00000  Uiso   1.00
C184   C     0.94265   0.39900  -0.00115   0.00000  Uiso   1.00
C185   C     0.91051   0.36680   0.00296   0.00000  Uiso   1.00
C186   C     0.84169   0.33042   0.00553   0.00000  Uiso   1.00
C187   C     0.84189   0.29794   0.01341   0.00000  Uiso   1.00
C188   C     0.80952   0.26495   0.01270   0.00000  Uiso   1.00
C189   C     0.77485   0.26224   0.00322   0.00000  Uiso   1.00
C190   C     0.77480   0.29512  -0.00062   0.00000  Uiso   1.00
C191   C     0.80733   0.32830   0.00068   0.00000  Uiso   1.00
C192   C     0.73950   0.22569  -0.00326   0.00000  Uiso   1.00
C193   C     0.70494   0.22318   0.99426   0.00000  Uiso   1.00
C194   C     0.67263   0.18942   0.99013   0.00000  Uiso   1.00
C195   C     0.67358   0.15709   0.98727   0.00000  Uiso   1.00
C196   C     0.70711   0.15870  -0.01246   0.00000  Uiso   1.00
C197   C     0.73954   0.19236  -0.00764   0.00000  Uiso   1.00
H198   H     0.85257   0.40045   0.99391   0.00000  Uiso   1.00
H199   H     0.90796   0.45533   0.98727   0.00000  Uiso   1.00
H200   H     0.96794   0.39853   0.00169   0.00000  Uiso   1.00
H201   H     0.91337   0.34335   0.00723   0.00000  Uiso   1.00
H202   H     0.86670   0.29678   0.02006   0.00000  Uiso   1.00
H203   H     0.81279   0.24192   0.01979   0.00000  Uiso   1.00
H204   H     0.74989   0.29613  -0.00564   0.00000  Uiso   1.00
H205   H     0.80443   0.35178  -0.00310   0.00000  Uiso   1.00
H206   H     0.70203   0.24689   0.99722   0.00000  Uiso   1.00
H207   H     0.64686   0.18861   0.99072   0.00000  Uiso   1.00
H208   H     0.70868   0.13413  -0.01192   0.00000  Uiso   1.00
H209   H     0.76430   0.19129  -0.00628   0.00000  Uiso   1.00
C210   C     0.83021   0.53094   0.02898   0.00000  Uiso   1.00
C211   C     0.85743   0.54385   0.09287   0.00000  Uiso   1.00
C212   C     0.89224   0.54796   0.09232   0.00000  Uiso   1.00
C213   C     0.90092   0.53955   0.02805   0.00000  Uiso   1.00
C214   C     0.87380   0.52545   0.96529   0.00000  Uiso   1.00
C215   C     0.83922   0.52091   0.96570   0.00000  Uiso   1.00
C216   C     0.79349   0.52890   0.02707   0.00000  Uiso   1.00
C217   C     0.76826   0.51901   0.96190   0.00000  Uiso   1.00
C218   C     0.73507   0.51828   0.95913   0.00000  Uiso   1.00
C219   C     0.72497   0.52767   0.02122   0.00000  Uiso   1.00
C220   C     0.74995   0.53723   0.08670   0.00000  Uiso   1.00
C221   C     0.78320   0.53769   0.08955   0.00000  Uiso   1.00
C222   C     0.68897   0.52730   0.01736   0.00000  Uiso   1.00
C223   C     0.67840   0.53617   0.07978   0.00000  Uiso   1.00
C224   C     0.64484   0.53493   0.07627   0.00000  Uiso   1.00
C225   C     0.62109   0.52568   0.01054   0.00000  Uiso   1.00
C226   C     0.63122   0.51785   0.94800   0.00000  Uiso   1.00
C227   C     0.66439   0.51827   0.95114   0.00000  Uiso   1.00
H228   H     0.85285   0.55160   0.14385   0.00000  Uiso   1.00
H229   H     0.91257   0.55851   0.14180   0.00000  Uiso   1.00
H230   H     0.87939   0.51823   0.91467   0.00000  Uiso   1.00
H231   H     0.82042   0.50983   0.91477   0.00000  Uiso   1.00
H232   H     0.77326   0.51190   0.91103   0.00000  Uiso   1.00
H233   H     0.71799   0.51029   0.90669   0.00000  Uiso   1.00
H234   H     0.74468   0.54467   0.13710   0.00000  Uiso   1.00
H235   H     0.80043   0.54521   0.14178   0.00000  Uiso   1.00
H236   H     0.69554   0.54444   0.13226   0.00000  Uiso   1.00
H237   H     0.63777   0.54220   0.12484   0.00000  Uiso   1.00
H238   H     0.61330   0.51098   0.89632   0.00000  Uiso   1.00
H239   H     0.66998   0.51153   0.90048   0.00000  Uiso   1.00
C240   C     0.31961   0.83326   0.02381   0.00000  Uiso   1.00
C241   C     0.32963   0.84377   0.95842   0.00000  Uiso   1.00
C242   C     0.36240   0.87611   0.95692   0.00000  Uiso   1.00
C243   C     0.38648   0.89955   0.02023   0.00000  Uiso   1.00
C244   C     0.37757   0.88953   0.08564   0.00000  Uiso   1.00
C245   C     0.34482   0.85689   0.08748   0.00000  Uiso   1.00
C246   C     0.28365   0.79824   0.02543   0.00000  Uiso   1.00
C247   C     0.27496   0.78598   0.09017   0.00000  Uiso   1.00
C248   C     0.24250   0.75327   0.09173   0.00000  Uiso   1.00
C249   C     0.21663   0.73076   0.02870   0.00000  Uiso   1.00
C250   C     0.22462   0.74358   0.96398   0.00000  Uiso   1.00
C251   C     0.25715   0.77632   0.96239   0.00000  Uiso   1.00
C252   C     0.18229   0.69441   0.03052   0.00000  Uiso   1.00
C253   C     0.15882   0.66985   0.96671   0.00000  Uiso   1.00
C254   C     0.12813   0.63582   0.96845   0.00000  Uiso   1.00
C255   C     0.11896   0.62522   0.03311   0.00000  Uiso   1.00
C256   C     0.14139   0.64896   0.09693   0.00000  Uiso   1.00
C257   C     0.17270   0.68290   0.09586   0.00000  Uiso   1.00
H258   H     0.31269   0.82763   0.90715   0.00000  Uiso   1.00
H259   H     0.36850   0.88331   0.90553   0.00000  Uiso   1.00
H260   H     0.39594   0.90676   0.13550   0.00000  Uiso   1.00
H261   H     0.33984   0.85104   0.13974   0.00000  Uiso   1.00
H262   H     0.29294   0.80095   0.14121   0.00000  Uiso   1.00
H263   H     0.23869   0.74618   0.14371   0.00000  Uiso   1.00
H264   H     0.20614   0.72899   0.91313   0.00000  Uiso   1.00
H265   H     0.26060   0.78380   0.91049   0.00000  Uiso   1.00
H266   H     0.16383   0.67572   0.91443   0.00000  Uiso   1.00
H267   H     0.11162   0.61746   0.91898   0.00000  Uiso   1.00
H268   H     0.13541   0.64059   0.14766   0.00000  Uiso   1.00
H269   H     0.18902   0.69925   0.14725   0.00000  Uiso   1.00
C270   C     0.54458   0.87516   0.99102   0.00000  Uiso   1.00
C271   C     0.54869   0.89639   0.05658   0.00000  Uiso   1.00
C272   C     0.54681   0.92817   0.05830   0.00000  Uiso   1.00
C273   C     0.54084   0.93996  -0.00491   0.00000  Uiso   1.00
C274   C     0.53539   0.91905   0.92953   0.00000  Uiso   1.00
C275   C     0.53724   0.88710   0.92734   0.00000  Uiso   1.00
C276   C     0.54747   0.84102   0.98940   0.00000  Uiso   1.00
C277   C     0.54278   0.81914   0.92459   0.00000  Uiso   1.00
C278   C     0.54355   0.78663   0.92361   0.00000  Uiso   1.00
C279   C     0.54960   0.77448   0.98742   0.00000  Uiso   1.00
C280   C     0.55642   0.79753   0.05206   0.00000  Uiso   1.00
C281   C     0.55517   0.82961   0.05304   0.00000  Uiso   1.00
C282   C     0.54932   0.73874   0.98730   0.00000  Uiso   1.00
C283   C     0.55157   0.72539   0.05168   0.00000  Uiso   1.00
C284   C     0.55285   0.69345   0.05287   0.00000  Uiso   1.00
C285   C     0.55151   0.67311   0.99001   0.00000  Uiso   1.00
C286   C     0.54794   0.68487   0.92514   0.00000  Uiso   1.00
C287   C     0.54664   0.71709   0.92358   0.00000  Uiso   1.00
H288   H     0.55345   0.88936   0.10784   0.00000  Uiso   1.00
H289   H     0.55037   0.94387   0.10941   0.00000  Uiso   1.00
H290   H     0.53001   0.92761   0.87999   0.00000  Uiso   1.00
H291   H     0.53288   0.87243   0.87497   0.00000  Uiso   1.00
H292   H     0.53839   0.82639   0.87333   0.00000  Uiso   1.00
H293   H     0.53919   0.77145   0.87174   0.00000  Uiso   1.00
H294   H     0.56321   0.79180   0.10360   0.00000  Uiso   1.00
H295   H     0.56065   0.84496   0.10528   0.00000  Uiso   1.00
H296   H     0.55221   0.73885   0.10252   0.00000  Uiso   1.00
H297   H     0.55540   0.68488   0.10388   0.00000  Uiso   1.00
H298   H     0.54564   0.66889   0.87557   0.00000  Uiso   1.00
H299   H     0.54358   0.72439   0.87175   0.00000  Uiso   1.00
C300   C     0.52829   0.32149   0.02321   0.00000  Uiso   1.00
C301   C     0.52982   0.34222   0.08719   0.00000  Uiso   1.00
C302   C     0.52459   0.37217   0.08598   0.00000  Uiso   1.00
C303   C     0.51846   0.38278   0.02113   0.00000  Uiso   1.00
C304   C     0.51721   0.36285   0.95769   0.00000  Uiso   1.00
C305   C     0.52226   0.33305   0.95852   0.00000  Uiso   1.00
C306   C     0.53170   0.28776   0.02337   0.00000  Uiso   1.00
C307   C     0.52661   0.26521   0.95918   0.00000  Uiso   1.00
C308   C     0.52751   0.23296   0.95953   0.00000  Uiso   1.00
C309   C     0.53363   0.22137   0.02401   0.00000  Uiso   1.00
C310   C     0.53992   0.24451   0.08801   0.00000  Uiso   1.00
C311   C     0.53899   0.27672   0.08771   0.00000  Uiso   1.00
C312   C     0.53332   0.18576   0.02464   0.00000  Uiso   1.00
C313   C     0.53656   0.17274   0.08930   0.00000  Uiso   1.00
C314   C     0.53595   0.13970   0.08951   0.00000  Uiso   1.00
C315   C     0.53259   0.11902   0.02540   0.00000  Uiso   1.00
C316   C     0.52907   0.13103   0.96115   0.00000  Uiso   1.00
C317   C     0.52920   0.16369   0.96044   0.00000  Uiso   1.00
H318   H     0.53500   0.33598   0.13912   0.00000  Uiso   1.00
H319   H     0.52603   0.38733   0.13587   0.00000  Uiso   1.00
H320   H     0.51199   0.37018   0.90654   0.00000  Uiso   1.00
H321   H     0.52134   0.31976   0.90721   0.00000  Uiso   1.00
H322   H     0.52120   0.27124   0.90712   0.00000  Uiso   1.00
H323   H     0.52280   0.21748   0.90783   0.00000  Uiso   1.00
H324   H     0.54562   0.23854   0.13989   0.00000  Uiso   1.00
H325   H     0.54393   0.29233   0.13935   0.00000  Uiso   1.00
H326   H     0.53921   0.18718   0.14069   0.00000  Uiso   1.00
H327   H     0.53834   0.13048   0.13981   0.00000  Uiso   1.00
H328   H     0.52518   0.11443   0.91091   0.00000  Uiso   1.00
H329   H     0.52576   0.17058   0.90845   0.00000  Uiso   1.00
loop_
_geom_bond_atom_site_label_1
_geom_bond_atom_site_label_2
_geom_bond_distance
_geom_bond_site_symmetry_2
_ccdc_geom_bond_type
Gd0    O6      2.171   .     S
Gd0    O8      2.225   .     S
Gd0    O11     2.256   .     S
Gd0    O3      2.221   1_556 S
Gd0    O4      2.255   1_556 S
Gd0    O7      2.234   1_556 S
Gd1    O2      2.217   .     S
Gd1    O13     2.248   .     S
Gd1    O14     2.210   .     S
Gd1    O5      2.277   1_554 S
Gd1    O10     2.252   1_554 S
Gd1    O15     2.250   1_554 S
O2     C16     1.256   .     A
O3     C16     1.269   .     A
O3     Gd0     2.221   1_554 S
O4     C12     1.279   .     A
O4     Gd0     2.255   1_554 S
O5     Gd1     2.277   1_556 S
O5     C12     1.284   1_556 A
O6     C9      1.277   .     A
O7     Gd0     2.234   1_554 S
O7     C9      1.291   1_554 A
O8     C19     1.270   .     A
C9     O7      1.291   1_556 A
C9     C303    1.474   1_556 S
O10    C19     1.282   .     A
O10    Gd1     2.252   1_556 S
O11    C18     1.275   1_556 A
C12    C153    1.463   .     S
C12    O5      1.284   1_554 A
O13    C18     1.272   .     A
O14    C17     1.266   .     A
O15    Gd1     2.250   1_556 S
O15    C17     1.276   1_556 A
C16    C63     1.472   .     S
C17    O15     1.276   1_554 A
C17    C285    1.476   1_554 S
C18    C225    1.464   .     S
C18    O11     1.275   1_554 A
C19    C75     1.463   .     S
Gd20   O28     2.253   .     S
Gd20   O23     2.223   1_556 S
Gd20   O24     2.282   1_556 S
Gd20   O26     2.173   1_455 S
Gd20   O27     2.230   1_456 S
Gd20   O31     2.263   1_455 S
Gd21   O22     2.233   .     S
Gd21   O34     2.181   .     S
Gd21   O25     2.284   1_554 S
Gd21   O30     2.254   1_554 S
Gd21   O33     2.245   1_554 S
Gd21   O35     2.230   1_554 S
O22    C36     1.251   .     A
O23    C36     1.270   .     A
O23    Gd20    2.223   1_554 S
O24    C32     1.281   .     A
O24    Gd20    2.282   1_554 S
O25    Gd21    2.284   1_556 S
O25    C32     1.281   1_556 A
O26    Gd20    2.173   1_655 S
O26    C29     1.280   1_556 A
O27    C29     1.293   .     A
O27    Gd20    2.230   1_654 S
O28    C39     1.260   .     A
C29    C213    1.479   .     S
C29    O26     1.280   1_554 A
O30    C39     1.277   .     A
O30    Gd21    2.254   1_556 S
O31    C38     1.284   .     A
O31    Gd20    2.263   1_655 S
C32    C255    1.473   .     S
C32    O25     1.281   1_554 A
O33    Gd21    2.245   1_556 S
O33    C38     1.284   1_455 A
O34    C37     1.273   1_554 A
O35    C37     1.285   .     A
O35    Gd21    2.230   1_556 S
C36    C105    1.471   .     S
C37    C165    1.469   .     S
C37    O34     1.273   1_556 A
C38    C183    1.483   .     S
C38    O33     1.284   1_655 A
C39    C93     1.486   .     S
Gd40   O46     2.208   .     S
Gd40   O51     2.299   .     S
Gd40   O43     2.239   1_566 S
Gd40   O44     2.250   1_566 S
Gd40   O47     2.245   1_556 S
Gd40   O48     2.243   1_565 S
Gd41   O42     2.231   .     S
Gd41   O54     2.194   .     S
Gd41   O45     2.239   1_554 S
Gd41   O50     2.250   1_554 S
Gd41   O53     2.235   1_545 S
Gd41   O55     2.212   1_554 S
O42    C56     1.270   .     A
O43    C56     1.276   .     A
O43    Gd40    2.239   1_544 S
O44    C52     1.271   .     A
O44    Gd40    2.250   1_544 S
O45    Gd41    2.239   1_556 S
O45    C52     1.274   1_556 A
O46    C49     1.272   .     A
O47    Gd40    2.245   1_554 S
O47    C49     1.281   1_554 A
O48    C59     1.267   .     A
O48    Gd40    2.243   1_545 S
C49    O47     1.281   1_556 A
C49    C243    1.482   1_556 S
O50    C59     1.275   .     A
O50    Gd41    2.250   1_556 S
O51    C58     1.291   .     A
C52    C315    1.458   .     S
C52    O45     1.274   1_554 A
O53    Gd41    2.235   1_565 S
O53    C58     1.276   1_554 A
O54    C57     1.278   .     A
O55    Gd41    2.212   1_556 S
O55    C57     1.284   1_556 A
C56    C123    1.468   .     S
C57    O55     1.284   1_554 A
C57    C195    1.466   1_554 S
C58    O53     1.276   1_556 A
C58    C273    1.463   1_556 S
C59    C135    1.459   .     S
C60    C61     1.421   .     A
C60    C65     1.411   .     A
C60    C66     1.511   .     S
C61    C62     1.404   .     A
C61    H78     1.076   .     S
C62    C63     1.401   .     A
C62    H79     1.085   .     S
C63    C64     1.397   .     A
C64    C65     1.381   .     A
C64    H80     1.084   .     S
C65    H81     1.073   .     S
C66    C67     1.412   .     A
C66    C71     1.409   .     A
C67    C68     1.388   .     A
C67    H82     1.074   .     S
C68    C69     1.406   .     A
C68    H83     1.077   .     S
C69    C70     1.415   .     A
C69    C72     1.509   .     S
C70    C71     1.401   .     A
C70    H84     1.078   .     S
C71    H85     1.077   .     S
C72    C73     1.412   .     A
C72    C77     1.420   .     A
C73    C74     1.390   .     A
C73    H86     1.078   .     S
C74    C75     1.400   .     A
C74    H87     1.084   .     S
C75    C76     1.394   .     A
C76    C77     1.393   .     A
C76    H88     1.083   .     S
C77    H89     1.074   .     S
C90    C91     1.423   .     A
C90    C95     1.413   .     A
C90    C96     1.528   .     S
C91    C92     1.412   .     A
C91    H108    1.077   .     S
C92    C93     1.400   .     A
C92    H109    1.084   .     S
C93    C94     1.395   .     A
C94    C95     1.393   .     A
C94    H110    1.076   .     S
C95    H111    1.073   .     S
C96    C97     1.416   .     A
C96    C101    1.412   .     A
C97    C98     1.399   .     A
C97    H112    1.074   .     S
C98    C99     1.409   .     A
C98    H113    1.078   .     S
C99    C100    1.418   .     A
C99    C102    1.528   .     S
C100   C101    1.407   .     A
C100   H114    1.078   .     S
C101   H115    1.077   .     S
C102   C103    1.415   .     A
C102   C107    1.423   .     A
C103   C104    1.401   .     A
C103   H116    1.077   .     S
C104   C105    1.400   .     A
C104   H117    1.083   .     S
C105   C106    1.398   .     A
C106   C107    1.407   .     A
C106   H118    1.084   .     S
C107   H119    1.078   .     S
C120   C125    1.417   .     A
C120   C126    1.520   .     S
C120   C121    1.419   1_545 A
C121   C122    1.395   .     A
C121   H138    1.072   .     S
C121   C120    1.419   1_565 A
C122   H139    1.083   .     S
C122   C123    1.392   1_565 A
C123   C124    1.403   .     A
C123   C122    1.392   1_545 A
C124   C125    1.399   .     A
C124   H140    1.087   .     S
C125   H141    1.078   .     S
C126   C127    1.413   .     A
C126   C131    1.411   1_545 A
C127   C128    1.404   .     A
C127   H142    1.078   .     S
C128   C129    1.414   .     A
C128   H143    1.077   .     S
C129   C132    1.525   .     S
C129   C130    1.413   1_545 A
C130   C131    1.397   .     A
C130   H144    1.076   .     S
C130   C129    1.413   1_565 A
C131   H145    1.075   .     S
C131   C126    1.411   1_565 A
C132   C137    1.421   .     A
C132   C133    1.417   1_545 A
C133   C134    1.395   .     A
C133   H146    1.074   .     S
C133   C132    1.417   1_565 A
C134   H147    1.082   .     S
C134   C135    1.390   1_565 A
C135   C136    1.397   .     A
C135   C134    1.390   1_545 A
C136   C137    1.408   .     A
C136   H148    1.085   .     S
C137   H149    1.077   .     S
C150   C151    1.418   .     A
C150   C156    1.515   .     S
C150   C155    1.418   1_556 A
C151   C152    1.396   .     A
C151   H168    1.075   .     S
C152   H169    1.083   .     S
C152   C153    1.395   1_556 A
C153   C154    1.396   .     A
C153   C152    1.395   1_554 A
C154   C155    1.396   .     A
C154   H170    1.084   .     S
C155   H171    1.077   .     S
C155   C150    1.418   1_554 A
C156   C161    1.411   .     A
C156   C157    1.411   1_556 A
C157   C158    1.395   .     A
C157   H172    1.076   .     S
C157   C156    1.411   1_554 A
C158   H173    1.076   .     S
C158   C159    1.413   1_554 A
C159   C160    1.410   .     A
C159   C162    1.515   .     S
C159   C158    1.413   1_556 A
C160   C161    1.395   .     A
C160   H174    1.075   .     S
C161   H175    1.075   .     S
C162   C163    1.421   .     A
C162   C167    1.414   1_556 A
C163   C164    1.401   .     A
C163   H176    1.076   .     S
C164   C165    1.396   .     A
C164   H177    1.083   .     S
C165   C166    1.398   1_556 A
C166   C167    1.390   .     A
C166   H178    1.084   .     S
C166   C165    1.398   1_554 A
C167   H179    1.075   .     S
C167   C162    1.414   1_554 A
C180   C185    1.416   .     A
C180   C186    1.516   .     S
C180   C181    1.416   1_554 A
C181   C182    1.398   .     A
C181   H198    1.076   .     S
C181   C180    1.416   1_556 A
C182   C183    1.403   .     A
C182   H199    1.083   .     S
C183   C184    1.400   1_556 A
C184   C185    1.394   .     A
C184   H200    1.083   .     S
C184   C183    1.400   1_554 A
C185   H201    1.075   .     S
C186   C187    1.411   .     A
C186   C191    1.412   .     A
C187   C188    1.394   .     A
C187   H202    1.075   .     S
C188   C189    1.410   .     A
C188   H203    1.076   .     S
C189   C190    1.412   .     A
C189   C192    1.515   .     S
C190   C191    1.399   .     A
C190   H204    1.077   .     S
C191   H205    1.076   .     S
C192   C197    1.418   .     A
C192   C193    1.417   1_554 A
C193   C194    1.398   .     A
C193   H206    1.076   .     S
C193   C192    1.417   1_556 A
C194   C195    1.397   .     A
C194   H207    1.084   .     S
C195   C196    1.396   1_556 A
C195   C57     1.466   1_556 S
C196   C197    1.396   .     A
C196   H208    1.084   .     S
C196   C195    1.396   1_554 A
C197   H209    1.076   .     S
C210   C211    1.421   .     A
C210   C216    1.520   .     S
C210   C215    1.414   1_554 A
C211   C212    1.407   .     A
C211   H228    1.077   .     S
C212   C213    1.400   .     A
C212   H229    1.083   .     S
C213   C214    1.400   1_554 A
C214   C215    1.389   .     A
C214   H230    1.084   .     S
C214   C213    1.400   1_556 A
C215   H231    1.074   .     S
C215   C210    1.414   1_556 A
C216   C221    1.411   .     A
C216   C217    1.413   1_554 A
C217   C218    1.394   .     A
C217   H232    1.075   .     S
C217   C216    1.413   1_556 A
C218   H233    1.076   .     S
C218   C219    1.409   1_556 A
C219   C220    1.415   .     A
C219   C222    1.519   .     S
C219   C218    1.409   1_554 A
C220   C221    1.402   .     A
C220   H234    1.077   .     S
C221   H235    1.077   .     S
C222   C223    1.418   .     A
C222   C227    1.421   1_554 A
C223   C224    1.398   .     A
C223   H236    1.076   .     S
C224   C225    1.395   .     A
C224   H237    1.082   .     S
C225   C226    1.395   1_554 A
C226   C227    1.399   .     A
C226   H238    1.085   .     S
C226   C225    1.395   1_556 A
C227   H239    1.079   .     S
C227   C222    1.421   1_556 A
C240   C245    1.421   .     A
C240   C246    1.524   .     S
C240   C241    1.416   1_554 A
C241   C242    1.398   .     A
C241   H258    1.077   .     S
C241   C240    1.416   1_556 A
C242   H259    1.084   .     S
C242   C243    1.401   1_556 A
C243   C244    1.399   .     A
C243   C242    1.401   1_554 A
C243   C49     1.482   1_554 S
C244   C245    1.405   .     A
C244   H260    1.083   .     S
C245   H261    1.076   .     S
C246   C247    1.412   .     A
C246   C251    1.414   1_554 A
C247   C248    1.399   .     A
C247   H262    1.076   .     S
C248   C249    1.410   .     A
C248   H263    1.076   .     S
C249   C252    1.520   .     S
C249   C250    1.414   1_554 A
C250   C251    1.401   .     A
C250   H264    1.077   .     S
C250   C249    1.414   1_556 A
C251   H265    1.078   .     S
C251   C246    1.414   1_556 A
C252   C257    1.422   .     A
C252   C253    1.415   1_554 A
C253   C254    1.396   .     A
C253   H266    1.077   .     S
C253   C252    1.415   1_556 A
C254   H267    1.073   .     S
C254   C255    1.395   1_556 A
C255   C256    1.395   .     A
C255   C254    1.395   1_554 A
C256   C257    1.402   .     A
C256   H268    1.084   .     S
C257   H269    1.075   .     S
C270   C275    1.420   .     A
C270   C276    1.520   .     S
C270   C271    1.419   1_556 A
C271   C272    1.395   .     A
C271   H288    1.076   .     S
C271   C270    1.419   1_554 A
C272   C273    1.393   .     A
C272   H289    1.084   .     S
C273   C274    1.396   1_554 A
C273   C58     1.463   1_554 S
C274   C275    1.401   .     A
C274   H290    1.084   .     S
C274   C273    1.396   1_556 A
C275   H291    1.077   .     S
C276   C277    1.414   .     A
C276   C281    1.411   1_556 A
C277   C278    1.402   .     A
C277   H292    1.077   .     S
C278   C279    1.412   .     A
C278   H293    1.077   .     S
C279   C282    1.519   .     S
C279   C280    1.412   1_556 A
C280   C281    1.394   .     A
C280   H294    1.076   .     S
C280   C279    1.412   1_554 A
C281   H295    1.076   .     S
C281   C276    1.411   1_554 A
C282   C287    1.421   .     A
C282   C283    1.416   1_556 A
C283   C284    1.393   .     A
C283   H296    1.077   .     S
C283   C282    1.416   1_554 A
C284   H297    1.085   .     S
C284   C285    1.399   1_554 A
C285   C286    1.399   .     A
C285   C284    1.399   1_556 A
C285   C17     1.476   1_556 S
C286   C287    1.406   .     A
C286   H298    1.083   .     S
C287   H299    1.078   .     S
C300   C301    1.422   .     A
C300   C306    1.517   .     S
C300   C305    1.413   1_554 A
C301   C302    1.404   .     A
C301   H318    1.076   .     S
C302   C303    1.397   .     A
C302   H319    1.083   .     S
C303   C304    1.400   1_554 A
C303   C9      1.474   1_554 S
C304   C305    1.392   .     A
C304   H320    1.084   .     S
C304   C303    1.400   1_556 A
C305   H321    1.077   .     S
C305   C300    1.413   1_556 A
C306   C311    1.410   .     A
C306   C307    1.414   1_554 A
C307   C308    1.396   .     A
C307   H322    1.077   .     S
C307   C306    1.414   1_556 A
C308   H323    1.077   .     S
C308   C309    1.411   1_556 A
C309   C310    1.410   .     A
C309   C312    1.513   .     S
C309   C308    1.411   1_554 A
C310   C311    1.395   .     A
C310   H324    1.075   .     S
C311   H325    1.076   .     S
C312   C313    1.420   .     A
C312   C317    1.417   1_554 A
C313   C314    1.397   .     A
C313   H326    1.076   .     S
C314   C315    1.395   .     A
C314   H327    1.084   .     S
C315   C316    1.394   1_554 A
C316   C317    1.392   .     A
C316   H328    1.085   .     S
C316   C315    1.394   1_556 A
C317   H329    1.076   .     S
C317   C312    1.417   1_556 A
