data_kag+N205+E15
_audit_creation_date              2025-01-21
_audit_creation_method            'Materials Studio'
_symmetry_space_group_name_H-M    'P1'
_symmetry_Int_Tables_number       1
_symmetry_cell_setting            triclinic
loop_
_symmetry_equiv_pos_as_xyz
  x,y,z
_cell_length_a                    27.0832
_cell_length_b                    26.8673
_cell_length_c                    8.5070
_cell_angle_alpha                 89.7075
_cell_angle_beta                  69.5364
_cell_angle_gamma                 119.2218
loop_
_atom_site_label
_atom_site_type_symbol
_atom_site_fract_x
_atom_site_fract_y
_atom_site_fract_z
_atom_site_U_iso_or_equiv
_atom_site_adp_type
_atom_site_occupancy
Y0     Y     0.53515   0.43459   0.00238   0.00000  Uiso   1.00
Y1     Y     0.40755   0.51081   0.96391   0.00000  Uiso   1.00
C2     C     0.48654   0.62507  -0.19125   0.00000  Uiso   1.00
C3     C     0.45673   0.49278   0.21897   0.00000  Uiso   1.00
C4     C     0.64489   0.48991   1.02890   0.00000  Uiso   1.00
C5     C     0.47926   0.31806   1.09818   0.00000  Uiso   1.00
C6     C     0.49094   0.46673   0.74014   0.00000  Uiso   1.00
C7     C     0.29440   0.47651  -0.02507   0.00000  Uiso   1.00
O8     O     0.47381   0.58498   0.72636   0.00000  Uiso   1.00
O9     O     0.45986   0.60575  -0.03174   0.00000  Uiso   1.00
O10    O     0.47533   0.47217   0.09488   0.00000  Uiso   1.00
O11    O     0.41858   0.50693   0.21703   0.00000  Uiso   1.00
O12    O     0.63852   0.47289   0.89555   0.00000  Uiso   1.00
O13    O     0.59528   0.48095   0.14419   0.00000  Uiso   1.00
O14    O     0.46952   0.34933   0.20065   0.00000  Uiso   1.00
O15    O     0.51489   0.34659   0.94574   0.00000  Uiso   1.00
O16    O     0.44132   0.44928   0.87255   0.00000  Uiso   1.00
O17    O     0.53506   0.46277   0.74981   0.00000  Uiso   1.00
O18    O     0.31194   0.49772   0.09075   0.00000  Uiso   1.00
O19    O     0.33304   0.46834   0.86341   0.00000  Uiso   1.00
Y20    Y     0.10240   0.59997  -0.00896   0.00000  Uiso   1.00
Y21    Y     0.90158   0.45978   1.04624   0.00000  Uiso   1.00
C22    C     0.83088   0.50428   1.04955   0.00000  Uiso   1.00
C23    C    -0.03255   0.52848   0.26975   0.00000  Uiso   1.00
C24    C     0.17422   0.69870   1.07222   0.00000  Uiso   1.00
C25    C     0.14234   0.52521  -0.02371   0.00000  Uiso   1.00
C26    C     0.03062   0.55765   0.76412   0.00000  Uiso   1.00
C27    C     0.84213   0.34383   0.06229   0.00000  Uiso   1.00
O28    O     0.86038   0.49398   0.91599   0.00000  Uiso   1.00
O29    O     0.84045   0.49410   0.17691   0.00000  Uiso   1.00
O30    O     0.00022   0.56260   0.12369   0.00000  Uiso   1.00
O31    O     0.92051   0.47959   0.28548   0.00000  Uiso   1.00
O32    O     0.18212   0.69390   0.91863   0.00000  Uiso   1.00
O33    O     0.12683   0.65449   0.18115   0.00000  Uiso   1.00
O34    O     0.10713   0.52822   0.11450   0.00000  Uiso   1.00
O35    O     0.15534   0.55952   0.84690   0.00000  Uiso   1.00
O36    O     1.00388   0.51158   0.87847   0.00000  Uiso   1.00
O37    O     0.07867   0.60261   0.76444   0.00000  Uiso   1.00
O38    O     0.84785   0.36578   0.18995   0.00000  Uiso   1.00
O39    O     0.86884   0.38157   0.92570   0.00000  Uiso   1.00
Y40    Y     0.56140   0.09337   0.01662   0.00000  Uiso   1.00
Y41    Y     0.50284   0.89783   0.92178   0.00000  Uiso   1.00
C42    C     0.37921   0.84440   1.04156   0.00000  Uiso   1.00
C43    C     0.52934  -0.02956   0.19371   0.00000  Uiso   1.00
C44    C     0.49435   0.14451   1.10973   0.00000  Uiso   1.00
C45    C     0.67055   0.15936   0.04333   0.00000  Uiso   1.00
C46    C     0.56816   0.02756   0.71677   0.00000  Uiso   1.00
C47    C     0.54047   0.82662  -0.21886   0.00000  Uiso   1.00
O48    O     0.40776   0.84162   1.12707   0.00000  Uiso   1.00
O49    O     0.41447   0.87732  -0.10619   0.00000  Uiso   1.00
O50    O     0.51043  -0.00355   0.12615   0.00000  Uiso   1.00
O51    O     0.52513   0.92390   0.14983   0.00000  Uiso   1.00
O52    O     0.52833   0.15033   0.95728   0.00000  Uiso   1.00
O53    O     0.49207   0.10943   0.21487   0.00000  Uiso   1.00
O54    O     0.62406   0.11648   0.15756   0.00000  Uiso   1.00
O55    O     0.66209   0.16616   0.91018   0.00000  Uiso   1.00
O56    O     0.56624   0.99516   0.82934   0.00000  Uiso   1.00
O57    O     0.57047   0.07454   0.75007   0.00000  Uiso   1.00
O58    O     0.52933   0.83157  -0.06512   0.00000  Uiso   1.00
O59    O     0.53762   0.86255   0.69360   0.00000  Uiso   1.00
N60    N     0.55121   0.53451   0.45449   0.00000  Uiso   1.00
N61    N     0.54140   0.54183   0.31706   0.00000  Uiso   1.00
C62    C     0.48162   0.50368   0.34998   0.00000  Uiso   1.00
C63    C     0.45128   0.47193   0.51661   0.00000  Uiso   1.00
C64    C     0.49761   0.49216   0.57662   0.00000  Uiso   1.00
H65    H     0.40403   0.43561   0.57900   0.00000  Uiso   1.00
H66    H     0.59436   0.55633   0.46082   0.00000  Uiso   1.00
H67    H     0.57607   0.56979   0.19907   0.00000  Uiso   1.00
N68    N     0.99783   0.60325   0.43993   0.00000  Uiso   1.00
N69    N     1.01388   0.61106   0.57126   0.00000  Uiso   1.00
C70    C     1.00656   0.56113   0.63741   0.00000  Uiso   1.00
C71    C    -0.01509   0.51931   0.54356   0.00000  Uiso   1.00
C72    C     0.98135   0.54862   0.41712   0.00000  Uiso   1.00
H73    H    -0.02170   0.47612   0.55591   0.00000  Uiso   1.00
H74    H     1.00041   0.63567   0.36330   0.00000  Uiso   1.00
H75    H     1.03128   0.65053   0.61149   0.00000  Uiso   1.00
N76    N     0.61461   0.00059   0.45293   0.00000  Uiso   1.00
N77    N     0.60628  -0.01184   0.31128   0.00000  Uiso   1.00
C78    C     0.55907  -0.00677   0.31265   0.00000  Uiso   1.00
C79    C     0.53622   1.01007   0.46208   0.00000  Uiso   1.00
C80    C     0.57212   0.01287   0.54899   0.00000  Uiso   1.00
H81    H     0.49643   1.01490   0.50718   0.00000  Uiso   1.00
H82    H     0.64821  -0.00028   0.48463   0.00000  Uiso   1.00
H83    H     0.63287  -0.02353   0.21479   0.00000  Uiso   1.00
N84    N     0.18443   0.46783   0.82279   0.00000  Uiso   1.00
N85    N     0.22556   0.45472   0.82172   0.00000  Uiso   1.00
C86    C     0.23795   0.46748  -0.03836   0.00000  Uiso   1.00
C87    C     0.20157   0.48816   0.05843   0.00000  Uiso   1.00
C88    C     0.16925   0.48875  -0.03635   0.00000  Uiso   1.00
H89    H     0.20583   0.50890   0.16580   0.00000  Uiso   1.00
H90    H     0.17134   0.46739   0.72060   0.00000  Uiso   1.00
H91    H     0.25001   0.44430   0.71582   0.00000  Uiso   1.00
N92    N     0.73800   0.18995   0.20456   0.00000  Uiso   1.00
N93    N     0.78487   0.23938   0.20761   0.00000  Uiso   1.00
C94    C     0.80333   0.28101   0.07565   0.00000  Uiso   1.00
C95    C     0.76822   0.25682  -0.01911   0.00000  Uiso   1.00
C96    C     0.72677   0.19929   0.06833   0.00000  Uiso   1.00
H97    H     0.76612   0.27986   0.88125   0.00000  Uiso   1.00
H98    H     0.71112   0.15222   0.30203   0.00000  Uiso   1.00
H99    H     0.79998   0.24559   0.30724   0.00000  Uiso   1.00
N100   N     0.70948   0.53404   0.19351   0.00000  Uiso   1.00
N101   N     0.75921   0.53788   0.19999   0.00000  Uiso   1.00
C102   C     0.78549   0.52092   1.06248   0.00000  Uiso   1.00
C103   C     0.75156   0.50690   0.96246   0.00000  Uiso   1.00
C104   C     0.70285   0.51449   1.05268   0.00000  Uiso   1.00
H105   H     0.75579   0.48513   0.85618   0.00000  Uiso   1.00
H106   H     0.67728   0.53892   0.29341   0.00000  Uiso   1.00
H107   H     0.77096   0.54674   0.30567   0.00000  Uiso   1.00
N108   N     0.22011   0.73976   1.27795   0.00000  Uiso   1.00
N109   N     0.27604   0.77699   1.26897   0.00000  Uiso   1.00
C110   C     0.31169   0.80939   1.10773   0.00000  Uiso   1.00
C111   C     0.27692   0.79209   1.00947   0.00000  Uiso   1.00
C112   C     0.21931   0.74651   1.12199   0.00000  Uiso   1.00
H113   H     0.29377   0.80399   0.87121   0.00000  Uiso   1.00
H114   H     0.18572   0.70537   1.38306   0.00000  Uiso   1.00
H115   H     0.29183   0.77212   1.36083   0.00000  Uiso   1.00
N116   N     0.54131   0.71243  -0.42998   0.00000  Uiso   1.00
N117   N     0.55610   0.76756  -0.43779   0.00000  Uiso   1.00
C118   C     0.54828   0.77880  -0.27914   0.00000  Uiso   1.00
C119   C     0.52938   0.72950  -0.16780   0.00000  Uiso   1.00
C120   C     0.52353   0.68791  -0.26613   0.00000  Uiso   1.00
H121   H     0.51186   0.72202  -0.02872   0.00000  Uiso   1.00
H122   H     0.53830   0.69096  -0.53147   0.00000  Uiso   1.00
H123   H     0.56705   0.79547  -0.54706   0.00000  Uiso   1.00
N124   N     0.43484   0.18049   1.31958   0.00000  Uiso   1.00
N125   N     0.43030   0.22734   1.31583   0.00000  Uiso   1.00
C126   C     0.45708   0.25616   1.15143   0.00000  Uiso   1.00
C127   C     0.47908   0.22611   1.04615   0.00000  Uiso   1.00
C128   C     0.46546   0.17933   1.15739   0.00000  Uiso   1.00
H129   H     0.50936   0.24121   0.91064   0.00000  Uiso   1.00
H130   H     0.42187   0.15291   1.43205   0.00000  Uiso   1.00
H131   H     0.41321   0.24142   1.42489   0.00000  Uiso   1.00
loop_
_geom_bond_atom_site_label_1
_geom_bond_atom_site_label_2
_geom_bond_distance
_geom_bond_site_symmetry_2
_ccdc_geom_bond_type
Y0     O10     2.231   .     S
Y0     O13     2.251   .     S
Y0     O14     2.267   .     S
Y0     O12     2.263   1_554 S
Y0     O15     2.248   1_554 S
Y0     O17     2.276   1_554 S
Y1     O8      2.282   .     S
Y1     O16     2.273   .     S
Y1     O19     2.252   .     S
Y1     O9      2.242   1_556 S
Y1     O11     2.283   1_556 S
Y1     O18     2.269   1_556 S
C2     O9      1.255   .     A
C2     C120    1.467   .     S
C2     O8      1.259   1_554 A
C3     O10     1.257   .     A
C3     O11     1.268   .     A
C3     C62     1.455   .     S
C4     O12     1.261   .     A
C4     C104    1.467   .     S
C4     O13     1.259   1_556 A
C5     O15     1.262   .     A
C5     C126    1.469   .     S
C5     O14     1.264   1_556 A
C6     O16     1.271   .     A
C6     O17     1.280   .     A
C6     C64     1.459   .     S
C7     O18     1.261   .     A
C7     C86     1.473   .     S
C7     O19     1.255   1_554 A
O8     C2      1.259   1_556 A
O9     Y1      2.242   1_554 S
O11    Y1      2.283   1_554 S
O12    Y0      2.263   1_556 S
O13    C4      1.259   1_554 A
O14    C5      1.264   1_554 A
O15    Y0      2.248   1_556 S
O17    Y0      2.276   1_556 S
O18    Y1      2.269   1_554 S
O19    C7      1.255   1_556 A
Y20    O30     2.243   .     S
Y20    O33     2.242   .     S
Y20    O34     2.269   .     S
Y20    O32     2.268   1_554 S
Y20    O35     2.246   1_554 S
Y20    O37     2.246   1_554 S
Y21    O28     2.274   .     S
Y21    O36     2.258   .     S
Y21    O39     2.257   .     S
Y21    O29     2.245   1_556 S
Y21    O31     2.272   1_556 S
Y21    O38     2.264   1_556 S
C22    O28     1.261   .     A
C22    C102    1.472   .     S
C22    O29     1.256   1_556 A
C23    O30     1.263   .     A
C23    O31     1.268   1_455 A
C23    C72     1.464   1_455 S
C24    O32     1.266   .     A
C24    C112    1.468   .     S
C24    O33     1.259   1_556 A
C25    O34     1.261   .     A
C25    C88     1.465   .     S
C25    O35     1.260   1_554 A
C26    O37     1.273   .     A
C26    O36     1.274   1_455 A
C26    C70     1.465   1_455 S
C27    O38     1.259   .     A
C27    C94     1.466   .     S
C27    O39     1.259   1_554 A
O29    Y21     2.245   1_554 S
O29    C22     1.256   1_554 A
O31    Y21     2.272   1_554 S
O31    C23     1.268   1_655 A
O32    Y20     2.268   1_556 S
O33    C24     1.259   1_554 A
O35    Y20     2.246   1_556 S
O35    C25     1.260   1_556 A
O36    C26     1.274   1_655 A
O37    Y20     2.246   1_556 S
O38    Y21     2.264   1_554 S
O39    C27     1.259   1_556 A
Y40    O50     2.263   .     S
Y40    O53     2.267   .     S
Y40    O54     2.259   .     S
Y40    O52     2.246   1_554 S
Y40    O55     2.265   1_554 S
Y40    O57     2.281   1_554 S
Y41    O48     2.234   .     S
Y41    O56     2.249   .     S
Y41    O59     2.273   .     S
Y41    O49     2.280   1_556 S
Y41    O51     2.245   1_556 S
Y41    O58     2.235   1_556 S
C42    O48     1.258   .     A
C42    C110    1.463   .     S
C42    O49     1.264   1_556 A
C43    O50     1.278   .     A
C43    C78     1.463   .     S
C43    O51     1.269   1_545 A
C44    O52     1.255   .     A
C44    C128    1.466   .     S
C44    O53     1.260   1_556 A
C45    O54     1.254   .     A
C45    C96     1.466   .     S
C45    O55     1.261   1_554 A
C46    O57     1.271   .     A
C46    C80     1.464   .     S
C46    O56     1.261   1_545 A
C47    O58     1.259   .     A
C47    C118    1.468   .     S
C47    O59     1.264   1_554 A
O49    Y41     2.280   1_554 S
O49    C42     1.264   1_554 A
O51    Y41     2.245   1_554 S
O51    C43     1.269   1_565 A
O52    Y40     2.246   1_556 S
O53    C44     1.260   1_554 A
O55    Y40     2.265   1_556 S
O55    C45     1.261   1_556 A
O56    C46     1.261   1_565 A
O57    Y40     2.281   1_556 S
O58    Y41     2.235   1_554 S
O59    C47     1.264   1_556 A
N60    N61     1.320   .     A
N60    C64     1.342   .     A
N60    H66     1.043   .     S
N61    C62     1.345   .     A
N61    H67     1.048   .     S
C62    C63     1.379   .     A
C63    C64     1.384   .     A
C63    H65     1.082   .     S
N68    N69     1.317   .     A
N68    C72     1.347   .     A
N68    H74     1.045   .     S
N69    C70     1.345   .     A
N69    H75     1.045   .     S
C70    C71     1.392   1_655 A
C70    C26     1.465   1_655 S
C71    H73     1.083   .     S
C71    C70     1.392   1_455 A
C71    C72     1.387   1_455 A
C72    C71     1.387   1_655 A
C72    C23     1.464   1_655 S
N76    N77     1.317   .     A
N76    C80     1.348   .     A
N76    H82     1.046   .     S
N77    C78     1.347   .     A
N77    H83     1.049   .     S
C78    C79     1.390   1_545 A
C79    H81     1.083   .     S
C79    C78     1.390   1_565 A
C79    C80     1.389   1_565 A
C80    C79     1.389   1_545 A
N84    N85     1.319   .     A
N84    H90     1.046   .     S
N84    C88     1.345   1_556 A
N85    H91     1.046   .     S
N85    C86     1.348   1_556 A
C86    C87     1.389   .     A
C86    N85     1.348   1_554 A
C87    C88     1.387   .     A
C87    H89     1.084   .     S
C88    N84     1.345   1_554 A
N92    N93     1.324   .     A
N92    C96     1.348   .     A
N92    H98     1.046   .     S
N93    C94     1.345   .     A
N93    H99     1.045   .     S
C94    C95     1.384   .     A
C95    C96     1.383   .     A
C95    H97     1.080   1_554 S
H97    C95     1.080   1_556 S
N100   N101    1.321   .     A
N100   H106    1.046   .     S
N100   C104    1.345   1_554 A
N101   H107    1.046   .     S
N101   C102    1.350   1_554 A
C102   C103    1.386   .     A
C102   N101    1.350   1_556 A
C103   C104    1.388   .     A
C103   H105    1.082   .     S
C104   N100    1.345   1_556 A
N108   N109    1.319   .     A
N108   C112    1.347   .     A
N108   H114    1.044   .     S
N109   C110    1.346   .     A
N109   H115    1.048   .     S
C110   C111    1.389   .     A
C111   C112    1.389   .     A
C111   H113    1.083   .     S
N116   N117    1.327   .     A
N116   C120    1.349   .     A
N116   H122    1.046   .     S
N117   C118    1.351   .     A
N117   H123    1.048   .     S
C118   C119    1.378   .     A
C119   C120    1.379   .     A
C119   H121    1.085   .     S
N124   N125    1.324   .     A
N124   C128    1.348   .     A
N124   H130    1.045   .     S
N125   C126    1.346   .     A
N125   H131    1.045   .     S
C126   C127    1.383   .     A
C127   C128    1.379   .     A
C127   H129    1.084   .     S
