data_lcy+N144+E14
_audit_creation_date              2025-01-21
_audit_creation_method            'Materials Studio'
_symmetry_space_group_name_H-M    'P1'
_symmetry_Int_Tables_number       1
_symmetry_cell_setting            triclinic
loop_
_symmetry_equiv_pos_as_xyz
  x,y,z
_cell_length_a                    19.8946
_cell_length_b                    18.9548
_cell_length_c                    18.1218
_cell_angle_alpha                 84.9596
_cell_angle_beta                  83.5470
_cell_angle_gamma                 78.6683
loop_
_atom_site_label
_atom_site_type_symbol
_atom_site_fract_x
_atom_site_fract_y
_atom_site_fract_z
_atom_site_U_iso_or_equiv
_atom_site_adp_type
_atom_site_occupancy
C0     C     0.26028   0.72492   0.96090   0.00000  Uiso   1.00
Er1    Er    0.09644   0.59624   0.85969   0.00000  Uiso   1.00
Er2    Er    0.17386   0.65649   0.87024   0.00000  Uiso   1.00
C3     C     0.04949   0.67857   0.98684   0.00000  Uiso   1.00
O4     O     0.21544   0.57182   0.94920   0.00000  Uiso   1.00
C5     C     0.07224   0.75462   0.79168   0.00000  Uiso   1.00
C6     C     0.20613   0.57666   0.73008   0.00000  Uiso   1.00
C7     C     0.01870   0.51795   0.80587   0.00000  Uiso   1.00
O8     O     0.22020   0.70251   0.00884   0.00000  Uiso   1.00
O9     O     0.25506   0.71692   0.88647   0.00000  Uiso   1.00
O10    O     0.23751   0.60425   0.77496   0.00000  Uiso   1.00
O11    O     0.14424   0.56958   0.74972   0.00000  Uiso   1.00
O12    O     0.13612   0.74238   0.79456   0.00000  Uiso   1.00
O13    O     0.03973   0.70262   0.81232   0.00000  Uiso   1.00
C14    C     0.19755   0.51092   0.95673   0.00000  Uiso   1.00
O15    O     0.15305   0.49891   0.91608   0.00000  Uiso   1.00
O16    O     0.09734   0.71134   0.95750   0.00000  Uiso   1.00
O17    O     0.05041   0.61686   0.96812   0.00000  Uiso   1.00
O18    O     0.07371   0.53204   0.77170   0.00000  Uiso   1.00
O19    O     1.00500   0.54811   0.86537   0.00000  Uiso   1.00
C20    C     0.73904   0.96119   0.24004   0.00000  Uiso   1.00
Er21   Er    0.61688   0.81603   0.08879   0.00000  Uiso   1.00
Er22   Er    0.67191   0.85481   0.17255   0.00000  Uiso   1.00
C23    C     0.69238   0.91965   1.00944   0.00000  Uiso   1.00
O24    O     0.59199   0.94498   0.19298   0.00000  Uiso   1.00
C25    C     0.76835   0.74058   0.09999   0.00000  Uiso   1.00
C26    C     0.59568   0.74220   0.24328   0.00000  Uiso   1.00
C27    C     0.50182   0.81089   1.03667   0.00000  Uiso   1.00
O28    O     0.69698   0.00425   0.20729   0.00000  Uiso   1.00
O29    O     0.73276   0.88970   0.25148   0.00000  Uiso   1.00
O30    O     0.62820   0.78784   0.26258   0.00000  Uiso   1.00
O31    O     0.58502   0.74184   0.17605   0.00000  Uiso   1.00
O32    O     0.75831   0.77060   0.15985   0.00000  Uiso   1.00
O33    O     0.71758   0.74387   0.06159   0.00000  Uiso   1.00
C34    C     0.54056   0.95749   0.15648   0.00000  Uiso   1.00
O35    O     0.52959   0.90829   0.11688   0.00000  Uiso   1.00
O36    O     0.71402   0.91807   0.07405   0.00000  Uiso   1.00
O37    O     0.64682   0.88484   0.99994   0.00000  Uiso   1.00
O38    O     0.50766   0.85797   0.08041   0.00000  Uiso   1.00
O39    O     0.55850   0.77063   1.01685   0.00000  Uiso   1.00
C40    C     0.85136   0.33169   0.71720   0.00000  Uiso   1.00
Er41   Er    0.86687   0.09892   0.59988   0.00000  Uiso   1.00
Er42   Er    0.84737   0.18145   0.68396   0.00000  Uiso   1.00
C43    C     0.95667   0.04815   0.71933   0.00000  Uiso   1.00
O44    O     0.92944   0.22699   0.62186   0.00000  Uiso   1.00
C45    C     0.76739   0.07060   0.73748   0.00000  Uiso   1.00
C46    C     0.73890   0.21554   0.57582   0.00000  Uiso   1.00
C47    C     0.84411   0.05098   0.47630   0.00000  Uiso   1.00
O48    O    -0.16951   0.34508   0.65562   0.00000  Uiso   1.00
O49    O     0.83938   0.26956   0.75991   0.00000  Uiso   1.00
O50    O     0.76217   0.24612   0.62475   0.00000  Uiso   1.00
O51    O     0.77498   0.15818   0.55099   0.00000  Uiso   1.00
O52    O     0.77109   0.13452   0.74892   0.00000  Uiso   1.00
O53    O     0.79798   0.04195   0.67787   0.00000  Uiso   1.00
C54    C     0.96131   0.20317   0.56211   0.00000  Uiso   1.00
O55    O     0.93932   0.15588   0.53071   0.00000  Uiso   1.00
O56    O     0.92278   0.10526   0.74880   0.00000  Uiso   1.00
O57    O     0.95219   0.03986   0.65233   0.00000  Uiso   1.00
O58    O     0.80886   0.10765   0.50332   0.00000  Uiso   1.00
O59    O     0.88695   1.01656   0.51882   0.00000  Uiso   1.00
C60    C     0.23261   0.26847   0.48697   0.00000  Uiso   1.00
Er61   Er    0.42448   0.38223   0.32367   0.00000  Uiso   1.00
Er62   Er    0.34605   0.31792   0.37718   0.00000  Uiso   1.00
C63    C     0.47698   0.29466   0.45794   0.00000  Uiso   1.00
O64    O     0.29287   0.40483   0.44186   0.00000  Uiso   1.00
C65    C     0.43547   0.23206   0.26266   0.00000  Uiso   1.00
C66    C     0.30569   0.40299   0.23191   0.00000  Uiso   1.00
C67    C     0.48066   0.49710   0.31930   0.00000  Uiso   1.00
O68    O     0.26111   0.29203   0.53289   0.00000  Uiso   1.00
O69    O     0.26744   0.25193   0.41828   0.00000  Uiso   1.00
O70    O     0.28543   0.35765   0.28184   0.00000  Uiso   1.00
O71    O     0.35647   0.43128   0.24175   0.00000  Uiso   1.00
O72    O     0.39238   0.22666   0.31775   0.00000  Uiso   1.00
O73    O     0.45976   0.29041   0.25016   0.00000  Uiso   1.00
C74    C     0.32240   0.45615   0.45063   0.00000  Uiso   1.00
O75    O     0.37765   0.46325   0.40822   0.00000  Uiso   1.00
O76    O     0.41633   0.27901   0.46594   0.00000  Uiso   1.00
O77    O     0.49493   0.33329   0.40169   0.00000  Uiso   1.00
O78    O     0.42740   0.48792   0.36251   0.00000  Uiso   1.00
O79    O     0.50194   0.44572   0.27744   0.00000  Uiso   1.00
C80    C     0.39303   0.76869   1.07354   0.00000  Uiso   1.00
C81    C     0.43580   0.79896   1.01807   0.00000  Uiso   1.00
C82    C     0.41773   0.81099   0.94509   0.00000  Uiso   1.00
C83    C     0.35785   0.79096   0.92729   0.00000  Uiso   1.00
C84    C     0.31690   0.75657   0.98178   0.00000  Uiso   1.00
C85    C     0.33392   0.74775   1.05562   0.00000  Uiso   1.00
H86    H     0.40715   0.75859   1.13003   0.00000  Uiso   1.00
H87    H     0.45011   0.83502   0.90193   0.00000  Uiso   1.00
H88    H     0.34477   0.80023   0.87052   0.00000  Uiso   1.00
H89    H     0.30362   0.72117   1.09887   0.00000  Uiso   1.00
C90    C     0.41295   0.11496   0.22657   0.00000  Uiso   1.00
C91    C     0.45444   0.16859   0.21654   0.00000  Uiso   1.00
C92    C     0.51569   0.15585   0.16922   0.00000  Uiso   1.00
C93    C     0.53803   0.08846   0.13932   0.00000  Uiso   1.00
C94    C     0.50076   0.03194   0.15746   0.00000  Uiso   1.00
C95    C     0.43626   0.04702   0.19819   0.00000  Uiso   1.00
H96    H     0.36414   0.12382   0.26062   0.00000  Uiso   1.00
H97    H     0.54868   0.19556   0.15950   0.00000  Uiso   1.00
H98    H     0.58787   0.07844   0.10732   0.00000  Uiso   1.00
H99    H     0.40710   0.00450   0.21378   0.00000  Uiso   1.00
C100   C     0.62208   0.30088   0.57219   0.00000  Uiso   1.00
C101   C     0.66758   0.23713   0.55257   0.00000  Uiso   1.00
C102   C     0.64262   0.18763   0.51389   0.00000  Uiso   1.00
C103   C     0.57549   0.20224   0.49278   0.00000  Uiso   1.00
C104   C     0.53117   0.26740   0.50837   0.00000  Uiso   1.00
C105   C     0.55506   0.31656   0.54871   0.00000  Uiso   1.00
H106   H     0.63902   0.33961   0.60295   0.00000  Uiso   1.00
H107   H     0.67565   0.13770   0.49806   0.00000  Uiso   1.00
H108   H     0.56016   0.16504   0.45870   0.00000  Uiso   1.00
H109   H     0.52310   0.36902   0.55823   0.00000  Uiso   1.00
C110   C     0.70029   0.06752   0.86081   0.00000  Uiso   1.00
C111   C     0.73751   0.02938   0.80097   0.00000  Uiso   1.00
C112   C     0.76051   0.95484   0.81155   0.00000  Uiso   1.00
C113   C     0.74999   0.92009   0.88178   0.00000  Uiso   1.00
C114   C     0.71793   0.95930   0.94304   0.00000  Uiso   1.00
C115   C     0.69130   0.03298   0.93143   0.00000  Uiso   1.00
H116   H     0.68064   0.12500   0.85331   0.00000  Uiso   1.00
H117   H     0.78935   0.92405   0.76666   0.00000  Uiso   1.00
H118   H     0.76590   0.86203   0.88808   0.00000  Uiso   1.00
H119   H     0.66165   0.06302   0.97637   0.00000  Uiso   1.00
C120   C     0.80577   0.08161   0.35110   0.00000  Uiso   1.00
C121   C     0.83578   0.02962   0.40365   0.00000  Uiso   1.00
C122   C     0.85300   0.95706   0.38806   0.00000  Uiso   1.00
C123   C     0.82946   0.93508   0.32618   0.00000  Uiso   1.00
C124   C     0.78820   0.98588   0.28091   0.00000  Uiso   1.00
C125   C     0.78364   0.05975   0.28779   0.00000  Uiso   1.00
H126   H     0.79433   0.13816   0.36211   0.00000  Uiso   1.00
H127   H     0.87872   0.91696   0.42723   0.00000  Uiso   1.00
H128   H     0.83660   0.87782   0.31916   0.00000  Uiso   1.00
H129   H     0.75506   0.09974   0.25063   0.00000  Uiso   1.00
C130   C     0.22292   0.50850   0.53687   0.00000  Uiso   1.00
C131   C     0.29336   0.50248   0.51323   0.00000  Uiso   1.00
C132   C     0.33547   0.52686   0.55921   0.00000  Uiso   1.00
C133   C     0.30803   0.55264   0.62949   0.00000  Uiso   1.00
C134   C     0.23795   0.55425   0.65470   0.00000  Uiso   1.00
C135   C     0.19574   0.53397   0.60601   0.00000  Uiso   1.00
H136   H     0.18889   0.48989   0.50323   0.00000  Uiso   1.00
H137   H     0.39015   0.52226   0.54268   0.00000  Uiso   1.00
H138   H     0.34215   0.56902   0.66469   0.00000  Uiso   1.00
H139   H     0.14131   0.53583   0.62187   0.00000  Uiso   1.00
C140   C     0.18236   0.43885   0.07879   0.00000  Uiso   1.00
C141   C     0.22596   0.46042   0.01776   0.00000  Uiso   1.00
C142   C     0.29576   0.45535   0.02700   0.00000  Uiso   1.00
C143   C     0.32057   0.43496   0.09622   0.00000  Uiso   1.00
C144   C     0.27642   0.41882   0.15879   0.00000  Uiso   1.00
C145   C     0.20751   0.41770   0.14893   0.00000  Uiso   1.00
H146   H     0.12785   0.44425   0.07404   0.00000  Uiso   1.00
H147   H     0.33035   0.47283  -0.01832   0.00000  Uiso   1.00
H148   H     0.37450   0.43440   0.10117   0.00000  Uiso   1.00
H149   H     0.17249   0.40467   0.19602   0.00000  Uiso   1.00
C150   C     0.13651   0.24256   0.57905   0.00000  Uiso   1.00
C151   C     0.16205   0.25460   0.50460   0.00000  Uiso   1.00
C152   C     0.12030   0.25132   0.44728   0.00000  Uiso   1.00
C153   C     1.05404   0.23524   0.46437   0.00000  Uiso   1.00
C154   C     1.02891   0.22313   0.53919   0.00000  Uiso   1.00
C155   C     0.07056   0.22787   0.59606   0.00000  Uiso   1.00
H156   H     0.16813   0.24368   0.62386   0.00000  Uiso   1.00
H157   H     0.13884   0.26150   0.38934   0.00000  Uiso   1.00
H158   H     1.02246   0.23264   0.41977   0.00000  Uiso   1.00
H159   H     0.05255   0.21821   0.65417   0.00000  Uiso   1.00
C160   C     0.05893   0.95342   0.73318   0.00000  Uiso   1.00
C161   C     0.99153   0.98346   0.76030   0.00000  Uiso   1.00
C162   C     0.94948   0.93697   0.79687   0.00000  Uiso   1.00
C163   C     0.97284   0.86179   0.80239   0.00000  Uiso   1.00
C164   C     0.03994   0.83150   0.77365   0.00000  Uiso   1.00
C165   C     0.08289   0.87895   0.74017   0.00000  Uiso   1.00
H166   H     0.09146   0.98707   0.70130   0.00000  Uiso   1.00
H167   H     0.89640   0.95846   0.81559   0.00000  Uiso   1.00
H168   H     0.93790   0.82801   0.82816   0.00000  Uiso   1.00
H169   H     0.13522   0.85829   0.71784   0.00000  Uiso   1.00
C170   C    -0.01174   0.44434   0.71112   0.00000  Uiso   1.00
C171   C    -0.02408   0.47061   0.78232   0.00000  Uiso   1.00
C172   C     0.92354   0.44897   0.83314   0.00000  Uiso   1.00
C173   C     0.88371   0.40202   0.81310   0.00000  Uiso   1.00
C174   C     0.89511   0.37721   0.74144   0.00000  Uiso   1.00
C175   C    -0.05222   0.39792   0.69082   0.00000  Uiso   1.00
H176   H     0.02817   0.46028   0.67106   0.00000  Uiso   1.00
H177   H     0.91334   0.46833   0.88856   0.00000  Uiso   1.00
H178   H     0.84308   0.38682   0.85268   0.00000  Uiso   1.00
H179   H    -0.04245   0.37782   0.63563   0.00000  Uiso   1.00
C180   C     0.89241   0.69883   0.12194   0.00000  Uiso   1.00
C181   C     0.84117   0.71689   0.07172   0.00000  Uiso   1.00
C182   C     0.86147   0.73337   0.99666   0.00000  Uiso   1.00
C183   C     0.93079   0.73174   0.97265   0.00000  Uiso   1.00
C184   C     0.98238   0.71271   1.02189   0.00000  Uiso   1.00
C185   C     0.96249   0.69500   0.09703   0.00000  Uiso   1.00
H186   H     0.87784   0.68837   0.18075   0.00000  Uiso   1.00
H187   H     0.82350   0.74996   0.95684   0.00000  Uiso   1.00
H188   H     0.94494   0.73885   0.91371   0.00000  Uiso   1.00
H189   H     0.00119   0.67575   0.13549   0.00000  Uiso   1.00
C190   C     0.61439   0.61570   0.28971   0.00000  Uiso   1.00
C191   C     0.57304   0.68479   0.29364   0.00000  Uiso   1.00
C192   C     0.50242   0.69094   0.31713   0.00000  Uiso   1.00
C193   C     0.47289   0.62922   0.33011   0.00000  Uiso   1.00
C194   C     0.51327   0.56075   0.31802   0.00000  Uiso   1.00
C195   C     0.58467   0.55422   0.30084   0.00000  Uiso   1.00
H196   H     0.66855   0.60972   0.26974   0.00000  Uiso   1.00
H197   H     0.46900   0.74366   0.31771   0.00000  Uiso   1.00
H198   H     0.41764   0.63518   0.34355   0.00000  Uiso   1.00
H199   H     0.61693   0.50172   0.29281   0.00000  Uiso   1.00
loop_
_geom_bond_atom_site_label_1
_geom_bond_atom_site_label_2
_geom_bond_distance
_geom_bond_site_symmetry_2
_ccdc_geom_bond_type
C0     O9      1.388   .     S
C0     C84     1.474   .     S
C0     O8      1.218   1_556 D
Er1    O11     2.167   .     S
Er1    O13     2.257   .     S
Er1    O15     2.197   .     S
Er1    O17     2.108   .     S
Er1    O18     2.224   .     S
Er1    O19     2.178   1_455 S
Er2    O4      2.156   .     S
Er2    O9      2.214   .     S
Er2    O10     2.209   .     S
Er2    O12     2.110   .     S
Er2    O16     2.242   .     S
C3     O16     1.279   .     A
C3     O17     1.243   .     A
C3     C184    1.465   1_455 S
O4     C14     1.265   .     A
C5     O12     1.252   .     A
C5     O13     1.289   .     A
C5     C164    1.496   .     S
C6     O10     1.282   .     A
C6     O11     1.272   .     A
C6     C134    1.500   .     S
C7     O18     1.259   .     A
C7     C171    1.470   .     S
C7     O19     1.243   1_455 A
O8     C0      1.218   1_554 D
C14    O15     1.278   .     A
C14    C141    1.484   1_556 S
O19    Er1     2.178   1_655 S
O19    C7      1.243   1_655 A
C20    O29     1.381   .     S
C20    C124    1.459   .     S
C20    O28     1.215   1_565 D
Er21   O31     2.148   .     S
Er21   O33     2.224   .     S
Er21   O35     2.258   .     S
Er21   O38     2.180   .     S
Er21   O37     2.090   1_554 S
Er21   O39     2.172   1_554 S
Er22   O24     2.121   .     S
Er22   O29     2.195   .     S
Er22   O30     2.186   .     S
Er22   O32     2.110   .     S
Er22   O36     2.238   .     S
C23    O37     1.256   .     A
C23    C114    1.458   .     S
C23    O36     1.288   1_556 A
O24    C34     1.253   .     A
C25    O32     1.247   .     A
C25    O33     1.278   .     A
C25    C181    1.477   .     S
C26    O30     1.270   .     A
C26    O31     1.261   .     A
C26    C191    1.465   .     S
C27    O39     1.266   .     A
C27    C81     1.456   .     S
C27    O38     1.274   1_556 A
O28    C20     1.215   1_545 D
C34    O35     1.290   .     A
C34    C94     1.477   1_565 S
O36    C23     1.288   1_554 A
O37    Er21    2.090   1_556 S
O38    C27     1.274   1_554 A
O39    Er21    2.172   1_556 S
C40    O49     1.397   .     S
C40    C174    1.464   .     S
C40    O48     1.223   1_655 D
Er41   O51     2.184   .     S
Er41   O53     2.218   .     S
Er41   O55     2.187   .     S
Er41   O57     2.114   .     S
Er41   O58     2.179   .     S
Er41   O59     2.186   1_545 S
Er42   O44     2.156   .     S
Er42   O49     2.227   .     S
Er42   O50     2.211   .     S
Er42   O52     2.103   .     S
Er42   O56     2.228   .     S
C43    O56     1.283   .     A
C43    O57     1.253   .     A
C43    C161    1.469   1_545 S
O44    C54     1.264   .     A
C45    O52     1.264   .     A
C45    O53     1.288   .     A
C45    C111    1.469   .     S
C46    O50     1.275   .     A
C46    O51     1.267   .     A
C46    C101    1.495   .     S
C47    O58     1.267   .     A
C47    C121    1.447   .     S
C47    O59     1.260   1_545 A
O48    C40     1.223   1_455 D
C54    O55     1.272   .     A
C54    C154    1.473   .     S
O59    Er41    2.186   1_565 S
O59    C47     1.260   1_565 A
C60    O68     1.218   .     D
C60    O69     1.385   .     S
C60    C151    1.474   .     S
Er61   O71     2.148   .     S
Er61   O73     2.239   .     S
Er61   O75     2.259   .     S
Er61   O77     2.128   .     S
Er61   O78     2.194   .     S
Er61   O79     2.188   .     S
Er62   O64     2.141   .     S
Er62   O69     2.216   .     S
Er62   O70     2.211   .     S
Er62   O72     2.116   .     S
Er62   O76     2.231   .     S
C63    O76     1.288   .     A
C63    O77     1.262   .     A
C63    C104    1.478   .     S
O64    C74     1.261   .     A
C65    O72     1.251   .     A
C65    O73     1.284   .     A
C65    C91     1.489   .     S
C66    O70     1.280   .     A
C66    O71     1.269   .     A
C66    C144    1.490   .     S
C67    O78     1.276   .     A
C67    O79     1.265   .     A
C67    C194    1.475   .     S
C74    O75     1.291   .     A
C74    C131    1.490   .     S
C80    C81     1.401   .     A
C80    C85     1.392   .     A
C80    H86     1.083   .     S
C81    C82     1.397   .     A
C82    C83     1.398   .     A
C82    H87     1.083   .     S
C83    C84     1.407   .     A
C83    H88     1.080   .     S
C84    C85     1.405   .     A
C85    H89     1.084   .     S
C90    C91     1.418   .     A
C90    C95     1.402   .     A
C90    H96     1.082   .     S
C91    C92     1.402   .     A
C92    C93     1.403   .     A
C92    H97     1.083   .     S
C93    C94     1.415   .     A
C93    H98     1.082   .     S
C94    C95     1.397   .     A
C94    C34     1.477   1_545 S
C95    H99     1.083   .     S
C100   C101    1.407   .     A
C100   C105    1.413   .     A
C100   H106    1.084   .     S
C101   C102    1.412   .     A
C102   C103    1.399   .     A
C102   H107    1.082   .     S
C103   C104    1.400   .     A
C103   H108    1.084   .     S
C104   C105    1.414   .     A
C105   H109    1.086   .     S
C110   C111    1.412   .     A
C110   C115    1.395   .     A
C110   H116    1.085   .     S
C111   C112    1.400   1_545 A
C112   C113    1.394   .     A
C112   H117    1.086   .     S
C112   C111    1.400   1_565 A
C113   C114    1.411   .     A
C113   H118    1.083   .     S
C114   C115    1.399   1_565 A
C115   H119    1.085   .     S
C115   C114    1.399   1_545 A
C120   C121    1.402   .     A
C120   C125    1.397   .     A
C120   H126    1.083   .     S
C121   C122    1.397   1_545 A
C122   C123    1.388   .     A
C122   H127    1.085   .     S
C122   C121    1.397   1_565 A
C123   C124    1.406   .     A
C123   H128    1.084   .     S
C124   C125    1.401   1_565 A
C125   H129    1.085   .     S
C125   C124    1.401   1_545 A
C130   C131    1.404   .     A
C130   C135    1.395   .     A
C130   H136    1.086   .     S
C131   C132    1.409   .     A
C132   C133    1.417   .     A
C132   H137    1.084   .     S
C133   C134    1.413   .     A
C133   H138    1.086   .     S
C134   C135    1.409   .     A
C135   H139    1.083   .     S
C140   C141    1.410   .     A
C140   C145    1.415   .     A
C140   H146    1.081   .     S
C141   C142    1.401   .     A
C141   C14     1.484   1_554 S
C142   C143    1.395   .     A
C142   H147    1.083   .     S
C143   C144    1.404   .     A
C143   H148    1.085   .     S
C144   C145    1.407   .     A
C145   H149    1.082   .     S
C150   C151    1.403   .     A
C150   C155    1.390   .     A
C150   H156    1.086   .     S
C151   C152    1.414   .     A
C152   H157    1.087   .     S
C152   C153    1.406   1_455 A
C153   C154    1.407   .     A
C153   H158    1.088   .     S
C153   C152    1.406   1_655 A
C154   C155    1.412   1_655 A
C155   H159    1.085   .     S
C155   C154    1.412   1_455 A
C160   C165    1.398   .     A
C160   H166    1.083   .     S
C160   C161    1.402   1_455 A
C161   C162    1.406   .     A
C161   C160    1.402   1_655 A
C161   C43     1.469   1_565 S
C162   C163    1.408   .     A
C162   H167    1.082   .     S
C163   H168    1.077   .     S
C163   C164    1.406   1_655 A
C164   C165    1.413   .     A
C164   C163    1.406   1_455 A
C165   H169    1.083   .     S
C170   C171    1.402   .     A
C170   C175    1.400   .     A
C170   H176    1.084   .     S
C171   C172    1.410   1_455 A
C172   C173    1.397   .     A
C172   H177    1.084   .     S
C172   C171    1.410   1_655 A
C173   C174    1.399   .     A
C173   H178    1.084   .     S
C174   C175    1.406   1_655 A
C175   H179    1.085   .     S
C175   C174    1.406   1_455 A
C180   C181    1.415   .     A
C180   C185    1.406   .     A
C180   H186    1.084   .     S
C181   C182    1.401   1_554 A
C182   C183    1.394   .     A
C182   H187    1.086   .     S
C182   C181    1.401   1_556 A
C183   C184    1.408   .     A
C183   H188    1.077   .     S
C184   C185    1.405   1_556 A
C184   C3      1.465   1_655 S
C185   C184    1.405   1_554 A
C185   H189    1.085   1_655 S
H189   C185    1.085   1_455 S
C190   C191    1.406   .     A
C190   C195    1.397   .     A
C190   H196    1.085   .     S
C191   C192    1.407   .     A
C192   C193    1.400   .     A
C192   H197    1.086   .     S
C193   C194    1.406   .     A
C193   H198    1.085   .     S
C194   C195    1.403   .     A
C195   H199    1.085   .     S
