data_lcy+N123+E35
_audit_creation_date              2025-01-21
_audit_creation_method            'Materials Studio'
_symmetry_space_group_name_H-M    'P1'
_symmetry_Int_Tables_number       1
_symmetry_cell_setting            triclinic
loop_
_symmetry_equiv_pos_as_xyz
  x,y,z
_cell_length_a                    28.2192
_cell_length_b                    21.7174
_cell_length_c                    27.0528
_cell_angle_alpha                 94.1446
_cell_angle_beta                  102.5649
_cell_angle_gamma                 92.0760
loop_
_atom_site_label
_atom_site_type_symbol
_atom_site_fract_x
_atom_site_fract_y
_atom_site_fract_z
_atom_site_U_iso_or_equiv
_atom_site_adp_type
_atom_site_occupancy
Ce0    Ce    0.19758   0.61796   0.86680   0.00000  Uiso   1.00
Ce1    Ce    0.11274   0.64672   0.92783   0.00000  Uiso   1.00
C2     C     0.20606   0.70242   0.96388   0.00000  Uiso   1.00
C3     C     0.25123   0.58557   0.79771   0.00000  Uiso   1.00
C4     C     0.10494   0.70216   0.81757   0.00000  Uiso   1.00
C5     C     0.10874   0.55182   0.83714   0.00000  Uiso   1.00
C6     C     0.03750   0.66091   0.97388   0.00000  Uiso   1.00
C7     C     0.19679   0.55701   0.97820   0.00000  Uiso   1.00
O8     O     0.18207   0.68076   0.99120   0.00000  Uiso   1.00
O9     O     0.17996   0.69922   0.91519   0.00000  Uiso   1.00
O10    O     0.25628   0.63878   0.82205   0.00000  Uiso   1.00
O11    O     0.22235   0.54792   0.81199   0.00000  Uiso   1.00
O12    O     0.14561   0.67849   0.81256   0.00000  Uiso   1.00
O13    O     0.08418   0.69433   0.85518   0.00000  Uiso   1.00
O14    O     0.12822   0.57660   0.80799   0.00000  Uiso   1.00
O15    O     0.13474   0.56382   0.88550   0.00000  Uiso   1.00
O16    O     0.04335   0.61122   0.94822   0.00000  Uiso   1.00
O17    O     0.07085   0.70365  -0.02306   0.00000  Uiso   1.00
O18    O     0.15923   0.58749   0.98344   0.00000  Uiso   1.00
O19    O     0.21796   0.55988   0.93950   0.00000  Uiso   1.00
Ce20   Ce    0.59829   0.94153   0.09843   0.00000  Uiso   1.00
Ce21   Ce    0.66554   0.83756   0.09006   0.00000  Uiso   1.00
C22    C     0.56597   0.80553   0.05608   0.00000  Uiso   1.00
C23    C     0.50999   0.96190   0.11305   0.00000  Uiso   1.00
C24    C     0.67502   0.95432   0.02478   0.00000  Uiso   1.00
C25    C     0.66427   0.97366   0.18075   0.00000  Uiso   1.00
C26    C     0.73491   0.75725   0.08498   0.00000  Uiso   1.00
C27    C     0.59704   0.82531   0.17199   0.00000  Uiso   1.00
O28    O     0.59486   0.77367   0.08113   0.00000  Uiso   1.00
O29    O     0.58873   0.85715   0.04363   0.00000  Uiso   1.00
O30    O     0.52385   0.97803   0.07378   0.00000  Uiso   1.00
O31    O     0.53755   0.92484   0.13965   0.00000  Uiso   1.00
O32    O     0.64205   0.98007   0.04413   0.00000  Uiso   1.00
O33    O     0.69220   0.90177   0.03673   0.00000  Uiso   1.00
O34    O     0.63245   1.00889   0.16447   0.00000  Uiso   1.00
O35    O     0.66659   0.92047   0.14840   0.00000  Uiso   1.00
O36    O     0.73755   0.79759   0.12229   0.00000  Uiso   1.00
O37    O     0.69421   0.75326   0.05243   0.00000  Uiso   1.00
O38    O     0.63048   0.79969   0.15225   0.00000  Uiso   1.00
O39    O     0.57654   0.87549   0.15634   0.00000  Uiso   1.00
Ce40   Ce    0.88511   0.13259   0.56168   0.00000  Uiso   1.00
Ce41   Ce    0.82697   0.11231   0.64884   0.00000  Uiso   1.00
C42    C     0.79321   0.05015   0.55339   0.00000  Uiso   1.00
C43    C     0.94896   0.15805   0.50416   0.00000  Uiso   1.00
C44    C     0.93096   0.04726   0.65601   0.00000  Uiso   1.00
C45    C     0.91705   0.19839   0.65505   0.00000  Uiso   1.00
C46    C     0.78183   0.09413   0.72419   0.00000  Uiso   1.00
C47    C     0.77751   0.19365   0.55529   0.00000  Uiso   1.00
O48    O     0.76704   0.07278   0.57840   0.00000  Uiso   1.00
O49    O     0.84012   0.05446   0.57999   0.00000  Uiso   1.00
O50    O     0.92506   0.10600   0.49864   0.00000  Uiso   1.00
O51    O     0.93628   0.19828   0.53470   0.00000  Uiso   1.00
O52    O     0.93797   0.07268   0.61566   0.00000  Uiso   1.00
O53    O     0.89426   0.05728   0.67661   0.00000  Uiso   1.00
O54    O     0.94321   0.16772   0.63470   0.00000  Uiso   1.00
O55    O     0.87015   0.19170   0.62812   0.00000  Uiso   1.00
O56    O     0.80491   0.14507   0.72159   0.00000  Uiso   1.00
O57    O     0.77971   0.05354   0.68700   0.00000  Uiso   1.00
O58    O     0.77407   0.17240   0.59815   0.00000  Uiso   1.00
O59    O     0.81422   0.18571   0.53318   0.00000  Uiso   1.00
Ce60   Ce    0.41275   0.42333   0.39333   0.00000  Uiso   1.00
Ce61   Ce    0.33820   0.32568   0.41025   0.00000  Uiso   1.00
C62    C     0.43481   0.29754   0.44105   0.00000  Uiso   1.00
C63    C     0.45957   0.52265   0.36535   0.00000  Uiso   1.00
C64    C     0.33987   0.46038   0.47000   0.00000  Uiso   1.00
C65    C     0.33262   0.43350   0.31866   0.00000  Uiso   1.00
C66    C     0.26635   0.24807   0.42226   0.00000  Uiso   1.00
C67    C     0.40394   0.28826   0.32644   0.00000  Uiso   1.00
O68    O     0.40275   0.26045   0.41804   0.00000  Uiso   1.00
O69    O     0.41689   0.35381   0.45212   0.00000  Uiso   1.00
O70    O     0.47972   0.49163   0.40187   0.00000  Uiso   1.00
O71    O     0.41706   0.50201   0.34310   0.00000  Uiso   1.00
O72    O     0.37642   0.47893   0.45155   0.00000  Uiso   1.00
O73    O     0.31645   0.40772   0.45609   0.00000  Uiso   1.00
O74    O     0.36348   0.47566   0.33341   0.00000  Uiso   1.00
O75    O     0.34405   0.38053   0.34356   0.00000  Uiso   1.00
O76    O     0.26457   0.27575   0.38191   0.00000  Uiso   1.00
O77    O     0.30660   0.25634   0.45536   0.00000  Uiso   1.00
O78    O     0.37131   0.27004   0.35083   0.00000  Uiso   1.00
O79    O     0.42629   0.34330   0.33469   0.00000  Uiso   1.00
C80    C     0.41152   0.76962   0.01765   0.00000  Uiso   1.00
C81    C     0.43272   0.81940  -0.00176   0.00000  Uiso   1.00
C82    C     0.48311   0.83032   0.01045   0.00000  Uiso   1.00
C83    C     0.51271   0.79207   0.04206   0.00000  Uiso   1.00
C84    C     0.49028   0.74341   0.06156   0.00000  Uiso   1.00
N85    N     0.44092   0.73357   0.04912   0.00000  Uiso   1.00
C86    C     0.35798   0.75548   1.00434   0.00000  Uiso   1.00
N87    N     0.33588   0.72727   1.03739   0.00000  Uiso   1.00
C88    C     0.28711   0.71212   1.02658   0.00000  Uiso   1.00
C89    C     0.25781   0.72428   0.97969   0.00000  Uiso   1.00
C90    C     0.27986   0.75319   0.94508   0.00000  Uiso   1.00
C91    C     0.32964   0.76904   0.95723   0.00000  Uiso   1.00
H92    H     0.49891   0.86898  -0.00465   0.00000  Uiso   1.00
H93    H     0.51186   0.71351   0.08687   0.00000  Uiso   1.00
H94    H     0.27153   0.68909   1.05398   0.00000  Uiso   1.00
H95    H     0.25873   0.76257   0.90816   0.00000  Uiso   1.00
H96    H     0.41074   0.85035   0.97442   0.00000  Uiso   1.00
H97    H     0.34579   0.78978   0.92922   0.00000  Uiso   1.00
C98    C     0.43014   0.14466   0.22105   0.00000  Uiso   1.00
C99    C     0.43928   0.20659   0.21200   0.00000  Uiso   1.00
C100   C     0.43236   0.25450   0.24687   0.00000  Uiso   1.00
C101   C     0.41636   0.24042   0.29051   0.00000  Uiso   1.00
C102   C     0.40874   0.17787   0.29842   0.00000  Uiso   1.00
N103   N     0.41589   0.13246   0.26437   0.00000  Uiso   1.00
C104   C     0.43947   0.09178   0.18786   0.00000  Uiso   1.00
N105   N     0.45344   0.03860   0.20919   0.00000  Uiso   1.00
C106   C     0.46903  -0.00935   0.18301   0.00000  Uiso   1.00
C107   C     0.47282   0.99577   0.13266   0.00000  Uiso   1.00
C108   C     0.45375   0.04741   0.10838   0.00000  Uiso   1.00
C109   C     0.43727   0.09573   0.13589   0.00000  Uiso   1.00
H110   H     0.43850   0.30212   0.23944   0.00000  Uiso   1.00
H111   H     0.39691   0.16478   0.33189   0.00000  Uiso   1.00
H112   H     0.48338   0.95179   0.20321   0.00000  Uiso   1.00
H113   H     0.45602   0.05335   0.06953   0.00000  Uiso   1.00
H114   H     0.45253   0.21797   0.17892   0.00000  Uiso   1.00
H115   H     0.42508   0.13661   0.11729   0.00000  Uiso   1.00
C116   C     0.63928   0.25563   0.48937   0.00000  Uiso   1.00
C117   C     0.66426   0.22034   0.45855   0.00000  Uiso   1.00
C118   C     0.71185   0.20451   0.47862   0.00000  Uiso   1.00
C119   C     0.73443   0.22403   0.52896   0.00000  Uiso   1.00
C120   C     0.70945   0.26264   0.55729   0.00000  Uiso   1.00
N121   N     0.66313   0.27695   0.53716   0.00000  Uiso   1.00
C122   C     0.58680   0.26648   0.47328   0.00000  Uiso   1.00
N123   N     0.56893   0.31653   0.49496   0.00000  Uiso   1.00
C124   C     0.52071   0.32709   0.48517   0.00000  Uiso   1.00
C125   C     0.48700   0.28506   0.45280   0.00000  Uiso   1.00
C126   C     0.50436   0.23282   0.43028   0.00000  Uiso   1.00
C127   C     0.55420   0.22350   0.44022   0.00000  Uiso   1.00
H128   H     0.72963   0.17348   0.45610   0.00000  Uiso   1.00
H129   H     0.72574   0.27842   0.59640   0.00000  Uiso   1.00
H130   H     0.50868   0.36799   0.50313   0.00000  Uiso   1.00
H131   H     0.47950   0.19936   0.40492   0.00000  Uiso   1.00
H132   H     0.64686   0.20352   0.42003   0.00000  Uiso   1.00
H133   H     0.56673   0.18216   0.42346   0.00000  Uiso   1.00
C134   C     0.73143   0.04909   0.85415   0.00000  Uiso   1.00
C135   C     0.70446   0.02683   0.80591   0.00000  Uiso   1.00
C136   C     0.72027   0.04254   0.76291   0.00000  Uiso   1.00
C137   C     0.76195   0.08158   0.76826   0.00000  Uiso   1.00
C138   C     0.78707   0.10427   0.81715   0.00000  Uiso   1.00
N139   N     0.77188   0.08683   0.85854   0.00000  Uiso   1.00
C140   C     0.71777   1.02974   0.89996   0.00000  Uiso   1.00
N141   N     0.74997   0.99978   0.93371   0.00000  Uiso   1.00
C142   C     0.73791   0.97713  -0.02483   0.00000  Uiso   1.00
C143   C     0.69142   0.98501  -0.01569   0.00000  Uiso   1.00
C144   C     0.65851   1.01809   0.95095   0.00000  Uiso   1.00
C145   C     0.67134   1.03967   0.90821   0.00000  Uiso   1.00
H146   H     0.70034   0.02402   0.72561   0.00000  Uiso   1.00
H147   H     0.81988   0.13370   0.82245   0.00000  Uiso   1.00
H148   H     0.76428   0.95225   0.00035   0.00000  Uiso   1.00
H149   H     0.62217   1.02487   0.95666   0.00000  Uiso   1.00
H150   H     0.67252  -0.00400   0.80178   0.00000  Uiso   1.00
H151   H     0.64529   0.06343   0.88166   0.00000  Uiso   1.00
C152   C     0.74894   0.00079   0.39432   0.00000  Uiso   1.00
C153   C     0.79782  -0.00433   0.41886   0.00000  Uiso   1.00
C154   C     0.81190   0.00910   0.47152   0.00000  Uiso   1.00
C155   C     0.77766   0.02721   0.49946   0.00000  Uiso   1.00
C156   C     0.72906   0.02924   0.47399   0.00000  Uiso   1.00
N157   N     0.71633   0.01655   0.42282   0.00000  Uiso   1.00
C158   C     0.73076   0.99130   0.33843   0.00000  Uiso   1.00
N159   N     0.68187   0.99228   0.32067   0.00000  Uiso   1.00
C160   C     0.66090   0.98712   0.27050   0.00000  Uiso   1.00
C161   C     0.68938   0.98039   0.23441   0.00000  Uiso   1.00
C162   C     0.73974   0.97731   0.25095   0.00000  Uiso   1.00
C163   C     0.76081   0.98390   0.30322   0.00000  Uiso   1.00
H164   H     0.84983   0.00689   0.49013   0.00000  Uiso   1.00
H165   H     0.70151   0.04288   0.49419   0.00000  Uiso   1.00
H166   H     0.62166   0.98725   0.25890   0.00000  Uiso   1.00
H167   H     0.76252   0.97119   0.22371   0.00000  Uiso   1.00
H168   H     0.82508  -0.01772   0.39828   0.00000  Uiso   1.00
H169   H     0.79993   0.98404   0.31518   0.00000  Uiso   1.00
C170   C     0.30624   0.53668   0.60683   0.00000  Uiso   1.00
C171   C     0.34830   0.56019   0.59332   0.00000  Uiso   1.00
C172   C     0.35806   0.53994   0.54607   0.00000  Uiso   1.00
C173   C     0.32550   0.49741   0.51234   0.00000  Uiso   1.00
C174   C     0.28168   0.48043   0.52576   0.00000  Uiso   1.00
N175   N     0.27390   0.49900   0.57212   0.00000  Uiso   1.00
C176   C     0.29726   0.54739   0.65887   0.00000  Uiso   1.00
N177   N     0.31142   0.60186   0.68748   0.00000  Uiso   1.00
C178   C     0.29996   0.61391   0.73377   0.00000  Uiso   1.00
C179   C     0.27253   0.56996   0.75305   0.00000  Uiso   1.00
C180   C     0.25982   0.51264   0.72509   0.00000  Uiso   1.00
C181   C     0.27200   0.50133   0.67813   0.00000  Uiso   1.00
H182   H     0.39234   0.55427   0.53747   0.00000  Uiso   1.00
H183   H     0.25498   0.44866   0.50090   0.00000  Uiso   1.00
H184   H     0.31064   0.65858   0.75433   0.00000  Uiso   1.00
H185   H     0.23875   0.47727   0.73839   0.00000  Uiso   1.00
H186   H     0.37461   0.59060   0.62005   0.00000  Uiso   1.00
H187   H     0.26103   0.45710   0.65677   0.00000  Uiso   1.00
C188   C     0.24848   0.46801   0.11315   0.00000  Uiso   1.00
C189   C     0.28085   0.47829   0.08131   0.00000  Uiso   1.00
C190   C     0.26409   0.50423   0.03499   0.00000  Uiso   1.00
C191   C     0.21524   0.51861   1.02062   0.00000  Uiso   1.00
C192   C     0.18365   0.50278   0.05210   0.00000  Uiso   1.00
N193   N     0.20103   0.47990   0.09737   0.00000  Uiso   1.00
C194   C     0.26559   0.45333   0.16607   0.00000  Uiso   1.00
N195   N     0.25729   0.49345   0.20396   0.00000  Uiso   1.00
C196   C     0.27437   0.48517   0.25391   0.00000  Uiso   1.00
C197   C     0.30086   0.43352   0.26795   0.00000  Uiso   1.00
C198   C     0.30779   0.39000   0.22946   0.00000  Uiso   1.00
C199   C     0.29074   0.40019   0.17832   0.00000  Uiso   1.00
H200   H     0.28958   0.51626   1.01209   0.00000  Uiso   1.00
H201   H     0.14542   0.51187   0.04217   0.00000  Uiso   1.00
H202   H     0.26941   0.52043   0.28248   0.00000  Uiso   1.00
H203   H     0.32967   0.35076   0.23890   0.00000  Uiso   1.00
H204   H     0.31907   0.47010   0.09361   0.00000  Uiso   1.00
H205   H     0.29785   0.36777   0.14878   0.00000  Uiso   1.00
C206   C     0.13268   0.18248   0.45031   0.00000  Uiso   1.00
C207   C     0.17339   0.19163   0.49091   0.00000  Uiso   1.00
C208   C     0.21863   0.20781   0.48141   0.00000  Uiso   1.00
C209   C     0.22304   0.21514   0.43158   0.00000  Uiso   1.00
C210   C     0.18213   0.20104   0.39169   0.00000  Uiso   1.00
N211   N     0.13827   0.18594   0.40190   0.00000  Uiso   1.00
C212   C     0.08358   0.17855   0.46026   0.00000  Uiso   1.00
N213   N     0.05090   0.13168   0.43767   0.00000  Uiso   1.00
C214   C     1.00594   0.12594   0.44826   0.00000  Uiso   1.00
C215   C     0.99210   0.16919   0.48300   0.00000  Uiso   1.00
C216   C     0.02442   0.21956   0.50407   0.00000  Uiso   1.00
C217   C     0.07021   0.22404   0.49319   0.00000  Uiso   1.00
H218   H     0.24914   0.21905   0.51321   0.00000  Uiso   1.00
H219   H     0.18432   0.20603   0.35271   0.00000  Uiso   1.00
H220   H     0.98179   0.08664   0.43107   0.00000  Uiso   1.00
H221   H     1.01532   0.25393   0.53109   0.00000  Uiso   1.00
H222   H     0.16962   0.18930   0.52976   0.00000  Uiso   1.00
H223   H     0.09534   0.26228   0.51089   0.00000  Uiso   1.00
C224   C     1.01548   0.90015   0.71532   0.00000  Uiso   1.00
C225   C     0.98531   0.92923   0.74349   0.00000  Uiso   1.00
C226   C     0.96027   0.97971   0.72554   0.00000  Uiso   1.00
C227   C     0.96522   0.00200   0.67939   0.00000  Uiso   1.00
C228   C    -0.00157  -0.02579   0.65389   0.00000  Uiso   1.00
N229   N     0.02227   0.92412   0.67200   0.00000  Uiso   1.00
C230   C     0.03705   0.84204   0.73142   0.00000  Uiso   1.00
N231   N     0.08542   0.83434   0.73580   0.00000  Uiso   1.00
C232   C     0.10751   0.78554   0.75844   0.00000  Uiso   1.00
C233   C     0.08066   0.74296   0.77973   0.00000  Uiso   1.00
C234   C     1.03026   0.74769   0.77180   0.00000  Uiso   1.00
C235   C     1.00836   0.79688   0.74755   0.00000  Uiso   1.00
H236   H     0.93535   0.99943   0.74679   0.00000  Uiso   1.00
H237   H     0.00336  -0.01005   0.61819   0.00000  Uiso   1.00
H238   H     0.14648   0.78294   0.76354   0.00000  Uiso   1.00
H239   H     1.00813   0.71522   0.78688   0.00000  Uiso   1.00
H240   H     0.97997   0.91179   0.77852   0.00000  Uiso   1.00
H241   H     0.96966   0.80144   0.74371   0.00000  Uiso   1.00
C242   C     1.00247   0.40570   0.78582   0.00000  Uiso   1.00
C243   C     0.02847   0.41041   0.83639   0.00000  Uiso   1.00
C244   C     0.06048   0.46152   0.85452   0.00000  Uiso   1.00
C245   C     0.06712   0.50683   0.82189   0.00000  Uiso   1.00
C246   C     1.03822   0.50231   0.77252   0.00000  Uiso   1.00
N247   N     1.00718   0.45216   0.75572   0.00000  Uiso   1.00
C248   C     0.97636   0.34770   0.76210   0.00000  Uiso   1.00
N249   N     0.93145   0.34936   0.73138   0.00000  Uiso   1.00
C250   C     0.90963   0.29914   0.70100   0.00000  Uiso   1.00
C251   C     0.93481   0.24498   0.69783   0.00000  Uiso   1.00
C252   C     0.98049   0.24159   0.73027   0.00000  Uiso   1.00
C253   C     0.00102   0.29266   0.76326   0.00000  Uiso   1.00
H254   H     0.08247   0.46338   0.89283   0.00000  Uiso   1.00
H255   H     1.04225   0.53673   0.74649   0.00000  Uiso   1.00
H256   H     0.87443   0.30337   0.67615   0.00000  Uiso   1.00
H257   H     0.00116   0.20074   0.72833   0.00000  Uiso   1.00
H258   H     0.02554   0.37373   0.86082   0.00000  Uiso   1.00
H259   H     0.03737   0.29084   0.78644   0.00000  Uiso   1.00
C260   C     0.86581   0.69220   0.05303   0.00000  Uiso   1.00
C261   C     0.86581   0.71887   0.10187   0.00000  Uiso   1.00
C262   C     0.82207   0.73508   0.11383   0.00000  Uiso   1.00
C263   C     0.77819   0.72472   0.07744   0.00000  Uiso   1.00
C264   C     0.77925   0.69349   1.03044   0.00000  Uiso   1.00
N265   N     0.82249   0.67882   1.01938   0.00000  Uiso   1.00
C266   C     0.91169   0.68280   0.03626   0.00000  Uiso   1.00
N267   N     0.91366   0.63562   1.00076   0.00000  Uiso   1.00
C268   C     0.95377   0.62693   0.98162   0.00000  Uiso   1.00
C269   C    -0.00509   0.66813   0.99685   0.00000  Uiso   1.00
C270   C     0.99368   0.71706   0.03320   0.00000  Uiso   1.00
C271   C     0.95240   0.72435   0.05310   0.00000  Uiso   1.00
H272   H     0.82293   0.75899   0.15061   0.00000  Uiso   1.00
H273   H     0.74621   0.68473   1.00133   0.00000  Uiso   1.00
H274   H     0.95320   0.58866   0.95343   0.00000  Uiso   1.00
H275   H     0.02456   0.74985   0.04583   0.00000  Uiso   1.00
H276   H     0.89940   0.72894   0.12997   0.00000  Uiso   1.00
H277   H     0.95172   0.76346   0.08010   0.00000  Uiso   1.00
C278   C     0.54244   0.72032   0.27722   0.00000  Uiso   1.00
C279   C     0.51839   0.77280   0.25960   0.00000  Uiso   1.00
C280   C     0.53680   0.80841   0.22643   0.00000  Uiso   1.00
C281   C     0.57946   0.79241   0.21111   0.00000  Uiso   1.00
C282   C     0.60389   0.74178   0.23200   0.00000  Uiso   1.00
N283   N     0.58490   0.70728   0.26359   0.00000  Uiso   1.00
C284   C     0.52081   0.67555   0.30588   0.00000  Uiso   1.00
N285   N     0.55000   0.63750   0.33561   0.00000  Uiso   1.00
C286   C     0.53176   0.59046   0.35790   0.00000  Uiso   1.00
C287   C     0.48141   0.57812   0.34883   0.00000  Uiso   1.00
C288   C     0.45082   0.61770   0.31950   0.00000  Uiso   1.00
C289   C     0.47020   0.66635   0.29821   0.00000  Uiso   1.00
H290   H     0.51687   0.84713   0.21155   0.00000  Uiso   1.00
H291   H     0.63738   0.72830   0.22192   0.00000  Uiso   1.00
H292   H     0.55648   0.56109   0.38055   0.00000  Uiso   1.00
H293   H     0.41166   0.61009   0.31187   0.00000  Uiso   1.00
H294   H     0.48517   0.78569   0.27048   0.00000  Uiso   1.00
H295   H     0.44561   0.69400   0.27368   0.00000  Uiso   1.00
loop_
_geom_bond_atom_site_label_1
_geom_bond_atom_site_label_2
_geom_bond_distance
_geom_bond_site_symmetry_2
_ccdc_geom_bond_type
Ce0    O9      2.256   .     S
Ce0    O10     2.305   .     S
Ce0    O11     2.281   .     S
Ce0    O12     2.348   .     S
Ce0    O14     2.341   .     S
Ce0    O15     2.260   .     S
Ce0    O19     2.389   .     S
Ce1    O8      2.359   .     S
Ce1    O9      2.280   .     S
Ce1    O13     2.290   .     S
Ce1    O15     2.243   .     S
Ce1    O16     2.270   .     S
Ce1    O18     2.276   .     S
Ce1    O17     2.290   1_556 S
C2     O8      1.213   .     D
C2     O9      1.358   .     S
C2     C89     1.480   .     S
C3     O10     1.275   .     A
C3     O11     1.271   .     A
C3     C179    1.486   .     S
C4     O12     1.304   .     A
C4     O13     1.298   .     A
C4     C233    1.474   .     S
C5     O14     1.201   .     D
C5     O15     1.355   .     S
C5     C245    1.467   .     S
C6     O16     1.276   .     A
C6     C269    1.476   .     S
C6     O17     1.283   1_556 A
C7     O18     1.298   .     A
C7     O19     1.317   .     A
C7     C191    1.481   .     S
O17    Ce1     2.290   1_554 S
O17    C6      1.283   1_554 A
Ce20   O29     2.242   .     S
Ce20   O30     2.252   .     S
Ce20   O31     2.271   .     S
Ce20   O32     2.297   .     S
Ce20   O34     2.243   .     S
Ce20   O35     2.184   .     S
Ce20   O39     2.360   .     S
Ce21   O28     2.346   .     S
Ce21   O29     2.327   .     S
Ce21   O33     2.298   .     S
Ce21   O35     2.302   .     S
Ce21   O36     2.261   .     S
Ce21   O37     2.289   .     S
Ce21   O38     2.313   .     S
C22    O28     1.213   .     D
C22    O29     1.371   .     S
C22    C83     1.481   .     S
C23    O30     1.276   .     A
C23    O31     1.287   .     A
C23    C107    1.471   .     S
C24    O32     1.289   .     A
C24    O33     1.291   .     A
C24    C143    1.470   .     S
C25    O34     1.230   .     D
C25    O35     1.410   .     S
C25    C161    1.465   .     S
C26    O36     1.276   .     A
C26    O37     1.282   .     A
C26    C263    1.477   .     S
C27    O38     1.304   .     A
C27    O39     1.307   .     A
C27    C281    1.479   .     S
Ce40   O49     2.231   .     S
Ce40   O50     2.292   .     S
Ce40   O51     2.261   .     S
Ce40   O52     2.349   .     S
Ce40   O54     2.336   .     S
Ce40   O55     2.257   .     S
Ce40   O59     2.356   .     S
Ce41   O48     2.342   .     S
Ce41   O49     2.276   .     S
Ce41   O53     2.296   .     S
Ce41   O55     2.249   .     S
Ce41   O56     2.265   .     S
Ce41   O57     2.267   .     S
Ce41   O58     2.307   .     S
C42    O48     1.200   .     D
C42    O49     1.358   .     S
C42    C155    1.473   .     S
C43    O50     1.277   .     A
C43    O51     1.273   .     A
C43    C215    1.473   .     S
C44    O52     1.307   .     A
C44    O53     1.297   .     A
C44    C227    1.481   .     S
C45    O54     1.205   .     D
C45    O55     1.362   .     S
C45    C251    1.468   .     S
C46    O56     1.278   .     A
C46    O57     1.279   .     A
C46    C137    1.462   .     S
C47    O58     1.300   .     A
C47    O59     1.314   .     A
C47    C119    1.473   .     S
Ce60   O69     2.259   .     S
Ce60   O70     2.320   .     S
Ce60   O71     2.275   .     S
Ce60   O72     2.347   .     S
Ce60   O74     2.292   .     S
Ce60   O75     2.234   .     S
Ce60   O79     2.366   .     S
Ce61   O68     2.331   .     S
Ce61   O69     2.301   .     S
Ce61   O73     2.276   .     S
Ce61   O75     2.264   .     S
Ce61   O76     2.259   .     S
Ce61   O77     2.279   .     S
Ce61   O78     2.318   .     S
C62    O68     1.218   .     D
C62    O69     1.377   .     S
C62    C125    1.477   .     S
C63    O70     1.278   .     A
C63    O71     1.269   .     A
C63    C287    1.475   .     S
C64    O72     1.303   .     A
C64    O73     1.289   .     A
C64    C173    1.488   .     S
C65    O74     1.222   .     D
C65    O75     1.388   .     S
C65    C197    1.466   .     S
C66    O76     1.276   .     A
C66    O77     1.282   .     A
C66    C209    1.472   .     S
C67    O78     1.310   .     A
C67    O79     1.312   .     A
C67    C101    1.475   .     S
C80    C81     1.405   .     A
C80    N85     1.365   .     A
C80    C86     1.490   1_554 S
C81    C82     1.396   .     A
C81    H96     1.082   1_554 S
C82    C83     1.400   .     A
C82    H92     1.083   .     S
C83    C84     1.405   .     A
C84    N85     1.365   .     A
C84    H93     1.083   .     S
C86    N87     1.363   .     A
C86    C91     1.407   .     A
C86    C80     1.490   1_556 S
N87    C88     1.366   .     A
C88    C89     1.404   .     A
C88    H94     1.083   .     S
C89    C90     1.403   .     A
C90    C91     1.395   .     A
C90    H95     1.083   .     S
C91    H97     1.081   .     S
H96    C81     1.082   1_556 S
C98    C99     1.409   .     A
C98    N103    1.359   .     A
C98    C104    1.473   .     S
C99    C100    1.401   .     A
C99    H114    1.083   .     S
C100   C101    1.402   .     A
C100   H110    1.083   .     S
C101   C102    1.406   .     A
C102   N103    1.351   .     A
C102   H111    1.084   .     S
C104   N105    1.361   .     A
C104   C109    1.403   .     A
N105   C106    1.357   .     A
C106   C107    1.401   1_545 A
C106   H112    1.081   1_545 S
C107   C106    1.401   1_565 A
C107   C108    1.406   1_565 A
C108   C109    1.394   .     A
C108   H113    1.083   .     S
C108   C107    1.406   1_545 A
C109   H115    1.082   .     S
H112   C106    1.081   1_565 S
C116   C117    1.408   .     A
C116   N121    1.361   .     A
C116   C122    1.482   .     S
C117   C118    1.400   .     A
C117   H132    1.081   .     S
C118   C119    1.400   .     A
C118   H128    1.084   .     S
C119   C120    1.404   .     A
C120   N121    1.359   .     A
C120   H129    1.083   .     S
C122   N123    1.362   .     A
C122   C127    1.406   .     A
N123   C124    1.360   .     A
C124   C125    1.401   .     A
C124   H130    1.082   .     S
C125   C126    1.403   .     A
C126   C127    1.398   .     A
C126   H131    1.083   .     S
C127   H133    1.082   .     S
C134   C135    1.402   .     A
C134   N139    1.359   .     A
C134   C140    1.460   1_545 S
C135   C136    1.393   .     A
C135   H150    1.084   .     S
C136   C137    1.400   .     A
C136   H146    1.084   .     S
C137   C138    1.403   .     A
C138   N139    1.356   .     A
C138   H147    1.083   .     S
C140   N141    1.360   .     A
C140   C145    1.398   .     A
C140   C134    1.460   1_565 S
N141   C142    1.360   1_556 A
C142   C143    1.401   .     A
C142   H148    1.082   .     S
C142   N141    1.360   1_554 A
C143   C144    1.404   1_554 A
C144   C145    1.391   .     A
C144   H149    1.083   .     S
C144   C143    1.404   1_556 A
C145   H151    1.083   1_565 S
H151   C145    1.083   1_545 S
C152   C153    1.407   .     A
C152   N157    1.361   .     A
C152   C158    1.484   1_545 S
C153   C154    1.399   .     A
C153   H168    1.079   .     S
C154   C155    1.401   .     A
C154   H164    1.083   .     S
C155   C156    1.398   .     A
C156   N157    1.357   .     A
C156   H165    1.081   .     S
C158   N159    1.360   .     A
C158   C163    1.411   .     A
C158   C152    1.484   1_565 S
N159   C160    1.352   .     A
C160   C161    1.397   .     A
C160   H166    1.083   .     S
C161   C162    1.399   .     A
C162   C163    1.405   .     A
C162   H167    1.083   .     S
C163   H169    1.081   .     S
C170   C171    1.405   .     A
C170   N175    1.359   .     A
C170   C176    1.487   .     S
C171   C172    1.409   .     A
C171   H186    1.083   .     S
C172   C173    1.408   .     A
C172   H182    1.083   .     S
C173   C174    1.407   .     A
C174   N175    1.355   .     A
C174   H183    1.082   .     S
C176   N177    1.363   .     A
C176   C181    1.402   .     A
N177   C178    1.370   .     A
C178   C179    1.406   .     A
C178   H184    1.081   .     S
C179   C180    1.401   .     A
C180   C181    1.394   .     A
C180   H185    1.083   .     S
C181   H187    1.083   .     S
C188   C189    1.407   .     A
C188   N193    1.354   .     A
C188   C194    1.470   .     S
C189   C190    1.405   .     A
C189   H204    1.083   .     S
C190   C191    1.402   1_554 A
C190   H200    1.083   1_554 S
C191   C190    1.402   1_556 A
C191   C192    1.410   1_556 A
C192   N193    1.353   .     A
C192   H201    1.083   .     S
C192   C191    1.410   1_554 A
C194   N195    1.362   .     A
C194   C199    1.399   .     A
N195   C196    1.360   .     A
C196   C197    1.400   .     A
C196   H202    1.083   .     S
C197   C198    1.406   .     A
C198   C199    1.399   .     A
C198   H203    1.083   .     S
C199   H205    1.083   .     S
H200   C190    1.083   1_556 S
C206   C207    1.403   .     A
C206   N211    1.360   .     A
C206   C212    1.469   .     S
C207   C208    1.394   .     A
C207   H222    1.084   .     S
C208   C209    1.400   .     A
C208   H218    1.083   .     S
C209   C210    1.405   .     A
C210   N211    1.359   .     A
C210   H219    1.083   .     S
C212   N213    1.363   .     A
C212   C217    1.399   .     A
N213   C214    1.364   1_455 A
C214   C215    1.406   .     A
C214   H220    1.083   .     S
C214   N213    1.364   1_655 A
C215   C216    1.402   1_655 A
C216   C217    1.388   .     A
C216   C215    1.402   1_455 A
C216   H221    1.084   1_455 S
C217   H223    1.084   .     S
H221   C216    1.084   1_655 S
C224   C225    1.399   .     A
C224   N229    1.364   1_655 A
C224   C230    1.474   1_655 S
C225   C226    1.386   .     A
C225   H240    1.084   .     S
C226   H236    1.082   .     S
C226   C227    1.404   1_565 A
C227   C226    1.404   1_545 A
C227   C228    1.407   1_655 A
C228   H237    1.082   .     S
C228   C227    1.407   1_455 A
C228   N229    1.365   1_545 A
N229   C224    1.364   1_455 A
N229   C228    1.365   1_565 A
C230   N231    1.362   .     A
C230   C224    1.474   1_455 S
C230   C235    1.402   1_455 A
N231   C232    1.365   .     A
C232   C233    1.406   .     A
C232   H238    1.082   .     S
C233   C234    1.400   1_455 A
C234   C235    1.388   .     A
C234   H239    1.084   .     S
C234   C233    1.400   1_655 A
C235   H241    1.083   .     S
C235   C230    1.402   1_655 A
C242   N247    1.362   .     A
C242   C248    1.467   .     S
C242   C243    1.399   1_655 A
C243   C244    1.394   .     A
C243   H258    1.083   .     S
C243   C242    1.399   1_455 A
C244   C245    1.402   .     A
C244   H254    1.083   .     S
C245   C246    1.400   1_455 A
C246   N247    1.359   .     A
C246   H255    1.083   .     S
C246   C245    1.400   1_655 A
C248   N249    1.359   .     A
C248   C253    1.404   1_655 A
N249   C250    1.359   .     A
C250   C251    1.403   .     A
C250   H256    1.083   .     S
C251   C252    1.400   .     A
C252   C253    1.396   1_655 A
C252   H257    1.084   1_655 S
C253   H259    1.083   .     S
C253   C248    1.404   1_455 A
C253   C252    1.396   1_455 A
H257   C252    1.084   1_455 S
C260   C261    1.404   .     A
C260   C266    1.478   .     S
C260   N265    1.364   1_554 A
C261   C262    1.393   .     A
C261   H276    1.082   .     S
C262   C263    1.404   .     A
C262   H272    1.084   .     S
C263   C264    1.404   1_554 A
C264   N265    1.361   .     A
C264   H273    1.082   .     S
C264   C263    1.404   1_556 A
N265   C260    1.364   1_556 A
C266   C271    1.407   .     A
C266   N267    1.364   1_554 A
N267   C268    1.357   .     A
N267   C266    1.364   1_556 A
C268   H274    1.084   .     S
C268   C269    1.408   1_655 A
C269   C268    1.408   1_455 A
C269   C270    1.401   1_456 A
C270   C271    1.395   .     A
C270   C269    1.401   1_654 A
C270   H275    1.083   1_655 S
C271   H277    1.083   .     S
H275   C270    1.083   1_455 S
C278   C279    1.407   .     A
C278   N283    1.362   .     A
C278   C284    1.480   .     S
C279   C280    1.396   .     A
C279   H294    1.082   .     S
C280   C281    1.403   .     A
C280   H290    1.082   .     S
C281   C282    1.407   .     A
C282   N283    1.357   .     A
C282   H291    1.083   .     S
C284   N285    1.366   .     A
C284   C289    1.402   .     A
N285   C286    1.363   .     A
C286   C287    1.401   .     A
C286   H292    1.082   .     S
C287   C288    1.403   .     A
C288   C289    1.389   .     A
C288   H293    1.083   .     S
C289   H295    1.082   .     S
