data_lcy+N505+E9
_audit_creation_date              2025-01-21
_audit_creation_method            'Materials Studio'
_symmetry_space_group_name_H-M    'P1'
_symmetry_Int_Tables_number       1
_symmetry_cell_setting            triclinic
loop_
_symmetry_equiv_pos_as_xyz
  x,y,z
_cell_length_a                    34.4643
_cell_length_b                    33.3517
_cell_length_c                    29.4227
_cell_angle_alpha                 96.1656
_cell_angle_beta                  94.5331
_cell_angle_gamma                 98.0124
loop_
_atom_site_label
_atom_site_type_symbol
_atom_site_fract_x
_atom_site_fract_y
_atom_site_fract_z
_atom_site_U_iso_or_equiv
_atom_site_adp_type
_atom_site_occupancy
Yb0    Yb    0.13917   0.60687   0.81638   0.00000  Uiso   1.00
Yb1    Yb    0.10119   0.67673   0.92710   0.00000  Uiso   1.00
C2     C     0.04216   0.70118   0.95479   0.00000  Uiso   1.00
O3     O     0.08469   0.57528   0.82968   0.00000  Uiso   1.00
O4     O     0.09960   0.58194   0.75932   0.00000  Uiso   1.00
O5     O     0.12039   0.66579   0.81292   0.00000  Uiso   1.00
O6     O     0.07294   0.66295   0.85911   0.00000  Uiso   1.00
O7     O     0.16701   0.55527   0.80423   0.00000  Uiso   1.00
O8     O     0.19014   0.61405   0.78174   0.00000  Uiso   1.00
O9     O     0.15669   0.70598   0.91517   0.00000  Uiso   1.00
O10    O     0.14162   0.69849   0.98536   0.00000  Uiso   1.00
C11    C     0.07702   0.56391   0.78614   0.00000  Uiso   1.00
O12    O     0.17265   0.62083   0.88294   0.00000  Uiso   1.00
O13    O     0.12061   0.61841   0.92221   0.00000  Uiso   1.00
O14    O     0.06951   0.72577   0.94000   0.00000  Uiso   1.00
C15    C     0.09163   0.68038   0.82948   0.00000  Uiso   1.00
O16    O     0.04786   0.66385   0.95561   0.00000  Uiso   1.00
C17    C     0.19151   0.57555   0.78117   0.00000  Uiso   1.00
C18    C     0.16761   0.71100   0.95858   0.00000  Uiso   1.00
C19    C     0.15662   0.61553   0.91979   0.00000  Uiso   1.00
Yb20   Yb    0.64833   0.88297   0.08232   0.00000  Uiso   1.00
Yb21   Yb    0.55942   0.87787   0.20176   0.00000  Uiso   1.00
C22    C     0.51601   0.92868   0.21979   0.00000  Uiso   1.00
O23    O     0.63780   0.93321   0.04840   0.00000  Uiso   1.00
O24    O     0.69601   0.92950   0.08313   0.00000  Uiso   1.00
O25    O     0.62995   0.90855   0.14551   0.00000  Uiso   1.00
O26    O     0.60865   0.92780   0.21056   0.00000  Uiso   1.00
O27    O     0.67239   0.85092   0.02925   0.00000  Uiso   1.00
O28    O     0.67969   0.83584   0.10010   0.00000  Uiso   1.00
O29    O     0.58253   0.83469   0.23844   0.00000  Uiso   1.00
O30    O     0.52089   0.82445   0.20839   0.00000  Uiso   1.00
C31    C     0.67486   0.94735   0.05573   0.00000  Uiso   1.00
O32    O     0.59148   0.84332   0.06847   0.00000  Uiso   1.00
O33    O     0.58165   0.85029   0.14107   0.00000  Uiso   1.00
O34    O     0.53199   0.91060   0.25150   0.00000  Uiso   1.00
C35    C     0.63533   0.93161   0.18310   0.00000  Uiso   1.00
O36    O     0.52173   0.91699   0.17786   0.00000  Uiso   1.00
C37    C     0.68870   0.83059   0.05825   0.00000  Uiso   1.00
C38    C     0.54917   0.81108   0.23079   0.00000  Uiso   1.00
C39    C     0.56761   0.84064   0.09948   0.00000  Uiso   1.00
Yb40   Yb    0.92220   0.06475   0.64794   0.00000  Uiso   1.00
Yb41   Yb    0.88009   0.16003   0.58954   0.00000  Uiso   1.00
C42    C     0.81854   0.18456   0.56522   0.00000  Uiso   1.00
O43    O     0.87334   0.08303   0.67843   0.00000  Uiso   1.00
O44    O     0.87895   0.01827   0.66301   0.00000  Uiso   1.00
O45    O     0.89474   0.05993   0.57799   0.00000  Uiso   1.00
O46    O     0.85004   0.10008   0.59037   0.00000  Uiso   1.00
O47    O     0.95534   0.05444   0.70776   0.00000  Uiso   1.00
O48    O     0.96820   0.02997   0.63918   0.00000  Uiso   1.00
O49    O     0.92899   0.14705   0.55590   0.00000  Uiso   1.00
O50    O     0.92096   0.21045   0.57670   0.00000  Uiso   1.00
C51    C     0.86058   0.04555   0.68250   0.00000  Uiso   1.00
O52    O     0.96024   0.12273   0.64698   0.00000  Uiso   1.00
O53    O     0.91001   0.15607   0.65537   0.00000  Uiso   1.00
O54    O     0.84031   0.17033   0.53538   0.00000  Uiso   1.00
C55    C     0.86404   0.07417   0.56418   0.00000  Uiso   1.00
O56    O     0.83111   0.18638   0.60799   0.00000  Uiso   1.00
C57    C     0.97465   0.03127   0.68316   0.00000  Uiso   1.00
C58    C     0.94232   0.18530   0.55822   0.00000  Uiso   1.00
C59    C     0.94674   0.15569   0.65860   0.00000  Uiso   1.00
Yb60   Yb    0.35850   0.38292   0.30854   0.00000  Uiso   1.00
Yb61   Yb    0.39109   0.32240   0.41910   0.00000  Uiso   1.00
C62    C     0.45050   0.29727   0.44964   0.00000  Uiso   1.00
O63    O     0.41205   0.41154   0.34414   0.00000  Uiso   1.00
O64    O     0.40262   0.40620   0.26880   0.00000  Uiso   1.00
O65    O     0.37472   0.32274   0.29689   0.00000  Uiso   1.00
O66    O     0.41738   0.33165   0.35738   0.00000  Uiso   1.00
O67    O     0.33292   0.43592   0.30165   0.00000  Uiso   1.00
O68    O     0.30992   0.37769   0.25949   0.00000  Uiso   1.00
O69    O     0.33320   0.29402   0.39714   0.00000  Uiso   1.00
O70    O     0.35450   0.30662   0.47050   0.00000  Uiso   1.00
C71    C     0.42405   0.42193   0.30610   0.00000  Uiso   1.00
O72    O     0.32284   0.37041   0.36429   0.00000  Uiso   1.00
O73    O     0.37198   0.38104   0.42010   0.00000  Uiso   1.00
O74    O     0.42093   0.27260   0.42810   0.00000  Uiso   1.00
C75    C     0.40091   0.30972   0.32151   0.00000  Uiso   1.00
O76    O     0.44685   0.33543   0.45599   0.00000  Uiso   1.00
C77    C     0.30911   0.41630   0.26805   0.00000  Uiso   1.00
C78    C     0.32565   0.29342   0.43937   0.00000  Uiso   1.00
C79    C     0.33729   0.38500   0.40497   0.00000  Uiso   1.00
C80    C     0.44676   0.80827   0.06065   0.00000  Uiso   1.00
N81    N     0.46056   0.81515   0.10572   0.00000  Uiso   1.00
N82    N     0.49898   0.82565   0.11815   0.00000  Uiso   1.00
C83    C     0.52507   0.82948   0.08614   0.00000  Uiso   1.00
N84    N     0.51123   0.82281   0.04106   0.00000  Uiso   1.00
N85    N     0.47283   0.81243   0.02854   0.00000  Uiso   1.00
C86    C     0.40454   0.79555   0.04663   0.00000  Uiso   1.00
N87    N     0.39101   0.79027   0.00151   0.00000  Uiso   1.00
N88    N     0.35297   0.77783   0.98841   0.00000  Uiso   1.00
C89    C     0.32700   0.77007   1.01988   0.00000  Uiso   1.00
N90    N     0.34048   0.77536   0.06508   0.00000  Uiso   1.00
N91    N     0.37857   0.78791   0.07822   0.00000  Uiso   1.00
C92    C     0.28513   0.75584   1.00480   0.00000  Uiso   1.00
N93    N     0.25886   0.74557   1.03527   0.00000  Uiso   1.00
N94    N     0.22113   0.73193   1.02089   0.00000  Uiso   1.00
C95    C     0.20837   0.72834   0.97557   0.00000  Uiso   1.00
N96    N     0.23462   0.73876   0.94526   0.00000  Uiso   1.00
N97    N     0.27225   0.75228   0.95958   0.00000  Uiso   1.00
C98    C     0.42611   0.19141   0.29088   0.00000  Uiso   1.00
N99    N     0.44543   0.21632   0.32761   0.00000  Uiso   1.00
N100   N     0.43768   0.25416   0.33694   0.00000  Uiso   1.00
C101   C     0.41012   0.26841   0.31015   0.00000  Uiso   1.00
N102   N     0.39095   0.24361   0.27315   0.00000  Uiso   1.00
N103   N     0.39890   0.20579   0.26359   0.00000  Uiso   1.00
C104   C     0.43497   0.14981   0.28092   0.00000  Uiso   1.00
N105   N     0.42122   0.12678   0.24045   0.00000  Uiso   1.00
N106   N     0.43061   0.08951   0.23112   0.00000  Uiso   1.00
C107   C     0.45368   0.07384   0.26220   0.00000  Uiso   1.00
N108   N     0.46706   0.09675   0.30277   0.00000  Uiso   1.00
N109   N     0.45798   0.13409   0.31190   0.00000  Uiso   1.00
C110   C     0.46597   0.03379   0.25153   0.00000  Uiso   1.00
N111   N     0.48415   0.01618   0.28508   0.00000  Uiso   1.00
N112   N     0.49840  -0.01849   0.27515   0.00000  Uiso   1.00
C113   C     0.49509   0.96322   0.23127   0.00000  Uiso   1.00
N114   N     0.47649  -0.01945   0.19773   0.00000  Uiso   1.00
N115   N     0.46198   0.01513   0.20772   0.00000  Uiso   1.00
C116   C     0.70857   0.21733   0.52933   0.00000  Uiso   1.00
N117   N     0.72601   0.19424   0.49842   0.00000  Uiso   1.00
N118   N     0.76151   0.18445   0.50938   0.00000  Uiso   1.00
C119   C     0.78065   0.19718   0.55172   0.00000  Uiso   1.00
N120   N     0.76314   0.22011   0.58258   0.00000  Uiso   1.00
N121   N     0.72790   0.23024   0.57148   0.00000  Uiso   1.00
C122   C     0.66931   0.22800   0.51797   0.00000  Uiso   1.00
N123   N     0.65609   0.25794   0.54479   0.00000  Uiso   1.00
N124   N     0.62044   0.26769   0.53512   0.00000  Uiso   1.00
C125   C     0.59645   0.24751   0.49860   0.00000  Uiso   1.00
N126   N     0.60953   0.21736   0.47185   0.00000  Uiso   1.00
N127   N     0.64539   0.20785   0.48128   0.00000  Uiso   1.00
C128   C     0.55764   0.25930   0.48746   0.00000  Uiso   1.00
N129   N     0.53015   0.23476   0.45743   0.00000  Uiso   1.00
N130   N     0.49548   0.24636   0.44633   0.00000  Uiso   1.00
C131   C     0.48724   0.28303   0.46457   0.00000  Uiso   1.00
N132   N     0.51470   0.30751   0.49459   0.00000  Uiso   1.00
N133   N     0.54915   0.29573   0.50608   0.00000  Uiso   1.00
C134   C     0.79006   0.02479   0.78772   0.00000  Uiso   1.00
N135   N     0.78769   0.05780   0.76500   0.00000  Uiso   1.00
N136   N     0.80804   0.06313   0.72883   0.00000  Uiso   1.00
C137   C     0.83067   0.03518   0.71360   0.00000  Uiso   1.00
N138   N     0.83186   0.00152   0.73541   0.00000  Uiso   1.00
N139   N     0.81204   0.99650   0.77192   0.00000  Uiso   1.00
C140   C     0.77335   0.02191   0.83169   0.00000  Uiso   1.00
N141   N     0.79247   1.00483   0.86490   0.00000  Uiso   1.00
N142   N     0.77838   1.00248   0.90545   0.00000  Uiso   1.00
C143   C     0.74450   1.01690   0.91431   0.00000  Uiso   1.00
N144   N     0.72520   0.03398   0.88103   0.00000  Uiso   1.00
N145   N     0.73970   0.03696   0.84057   0.00000  Uiso   1.00
C146   C     0.72727   1.00917   0.95713   0.00000  Uiso   1.00
N147   N     0.68795   0.00737   0.96000   0.00000  Uiso   1.00
N148   N     0.67127  -0.00869  -0.00537   0.00000  Uiso   1.00
C149   C     0.69339   0.97706   0.02788   0.00000  Uiso   1.00
N150   N     0.73292   0.98091   0.02615   0.00000  Uiso   1.00
N151   N     0.74952   0.99661   0.99142   0.00000  Uiso   1.00
C152   C     0.81988   0.05131   0.42578   0.00000  Uiso   1.00
N153   N     0.84921   1.03177   0.44189   0.00000  Uiso   1.00
N154   N     0.86313   0.03869   0.48609   0.00000  Uiso   1.00
C155   C     0.84793   0.06505   0.51581   0.00000  Uiso   1.00
N156   N     0.81839   0.08421   0.49970   0.00000  Uiso   1.00
N157   N     0.80462   0.07744   0.45559   0.00000  Uiso   1.00
C158   C     0.80253   0.04241   0.37787   0.00000  Uiso   1.00
N159   N     0.77402   0.06335   0.36283   0.00000  Uiso   1.00
N160   N     0.75411   0.05214   0.32180   0.00000  Uiso   1.00
C161   C     0.76194   1.01962   0.29406   0.00000  Uiso   1.00
N162   N     0.79146   0.99948   0.30837   0.00000  Uiso   1.00
N163   N     0.81155   1.01081   0.34949   0.00000  Uiso   1.00
C164   C     0.73347   1.00199   0.25472   0.00000  Uiso   1.00
N165   N     0.73707   0.96619   0.22973   0.00000  Uiso   1.00
N166   N     0.70665   0.94539   0.20207   0.00000  Uiso   1.00
C167   C     0.67161   0.95967   0.19854   0.00000  Uiso   1.00
N168   N     0.66866   0.99613   0.22218   0.00000  Uiso   1.00
N169   N     0.69904   0.01703   0.24937   0.00000  Uiso   1.00
C170   C     0.28635   0.44648   0.50869   0.00000  Uiso   1.00
N171   N     0.31856   0.46463   0.49115   0.00000  Uiso   1.00
N172   N     0.33304   0.44581   0.45562   0.00000  Uiso   1.00
C173   C     0.31543   0.40854   0.43562   0.00000  Uiso   1.00
N174   N     0.28265   0.39057   0.45244   0.00000  Uiso   1.00
N175   N     0.26832   0.40928   0.48841   0.00000  Uiso   1.00
C176   C     0.27416   0.46531   0.55152   0.00000  Uiso   1.00
N177   N     0.24818   0.44401   0.57564   0.00000  Uiso   1.00
N178   N     0.23947   0.46045   0.61619   0.00000  Uiso   1.00
C179   C     0.25660   0.49863   0.63411   0.00000  Uiso   1.00
N180   N     0.28235   0.51999   0.60983   0.00000  Uiso   1.00
N181   N     0.29120   0.50349   0.56945   0.00000  Uiso   1.00
C182   C     0.24523   0.51764   0.67731   0.00000  Uiso   1.00
N183   N     0.25530   0.55837   0.68988   0.00000  Uiso   1.00
N184   N     0.24050   0.57670   0.72562   0.00000  Uiso   1.00
C185   C     0.21562   0.55482   0.75046   0.00000  Uiso   1.00
N186   N     0.20676   0.51388   0.73893   0.00000  Uiso   1.00
N187   N     0.22133   0.49558   0.70301   0.00000  Uiso   1.00
C188   C     0.20804   0.56764   0.03051   0.00000  Uiso   1.00
N189   N     0.18185   0.59400   0.03706   0.00000  Uiso   1.00
N190   N     0.16688   0.61079   1.00187   0.00000  Uiso   1.00
C191   C     0.17816   0.60253   0.95910   0.00000  Uiso   1.00
N192   N     0.20504   0.57686   0.95270   0.00000  Uiso   1.00
N193   N     0.21959   0.55958   0.98779   0.00000  Uiso   1.00
C194   C     0.22109   0.54569   0.06806   0.00000  Uiso   1.00
N195   N     0.23249   0.50862   0.05864   0.00000  Uiso   1.00
N196   N     0.24250   0.48750   0.09247   0.00000  Uiso   1.00
C197   C     0.24176   0.50276   0.13699   0.00000  Uiso   1.00
N198   N     0.23061   0.54000   0.14653   0.00000  Uiso   1.00
N199   N     0.22003   0.56090   0.11261   0.00000  Uiso   1.00
C200   C     0.25438   0.47966   0.17369   0.00000  Uiso   1.00
N201   N     0.26901   0.49881   0.21587   0.00000  Uiso   1.00
N202   N     0.28458   0.47813   0.24727   0.00000  Uiso   1.00
C203   C     0.28546   0.43751   0.23777   0.00000  Uiso   1.00
N204   N     0.26985   0.41826   0.19606   0.00000  Uiso   1.00
N205   N     0.25466   0.43896   0.16459   0.00000  Uiso   1.00
C206   C     0.21121   0.26336   0.47551   0.00000  Uiso   1.00
N207   N     0.24268   0.25881   0.50431   0.00000  Uiso   1.00
N208   N     0.27923   0.26783   0.49265   0.00000  Uiso   1.00
C209   C     0.28556   0.28080   0.45131   0.00000  Uiso   1.00
N210   N     0.25409   0.28492   0.42233   0.00000  Uiso   1.00
N211   N     0.21758   0.27656   0.43429   0.00000  Uiso   1.00
C212   C     0.17089   0.25357   0.48842   0.00000  Uiso   1.00
N213   N     0.14130   0.27202   0.47085   0.00000  Uiso   1.00
N214   N     0.10461   0.26253   0.48194   0.00000  Uiso   1.00
C215   C     0.09614   0.23375   0.51045   0.00000  Uiso   1.00
N216   N     0.12573   0.21528   0.52791   0.00000  Uiso   1.00
N217   N     0.16248   0.22524   0.51743   0.00000  Uiso   1.00
C218   C     0.05557   0.22157   0.52143   0.00000  Uiso   1.00
N219   N     0.04433   0.18326   0.53168   0.00000  Uiso   1.00
N220   N     0.00787   0.17182   0.54220   0.00000  Uiso   1.00
C221   C     0.98140   0.19836   0.54346   0.00000  Uiso   1.00
N222   N     0.99259   0.23684   0.53343   0.00000  Uiso   1.00
N223   N     0.02899   0.24813   0.52214   0.00000  Uiso   1.00
C224   C     0.03007   0.94141   0.73776   0.00000  Uiso   1.00
N225   N     1.01083   0.96608   0.76477   0.00000  Uiso   1.00
N226   N     0.99563   0.99679   0.74822   0.00000  Uiso   1.00
C227   C     0.99898   0.00395   0.70400   0.00000  Uiso   1.00
N228   N     1.01899   0.97983   0.67731   0.00000  Uiso   1.00
N229   N     0.03450   0.94935   0.69398   0.00000  Uiso   1.00
C230   C     0.04201   0.90425   0.75390   0.00000  Uiso   1.00
N231   N     0.06423   0.88147   0.72873   0.00000  Uiso   1.00
N232   N     0.07266   0.84630   0.74160   0.00000  Uiso   1.00
C233   C     0.05880   0.83230   0.77981   0.00000  Uiso   1.00
N234   N     0.03659   0.85508   0.80501   0.00000  Uiso   1.00
N235   N     0.02840   0.89041   0.79232   0.00000  Uiso   1.00
C236   C     0.06731   0.79291   0.79318   0.00000  Uiso   1.00
N237   N     0.04865   0.77551   0.82678   0.00000  Uiso   1.00
N238   N     0.05610   0.73953   0.83826   0.00000  Uiso   1.00
C239   C     0.08261   0.71972   0.81668   0.00000  Uiso   1.00
N240   N     0.10134   0.73721   0.78324   0.00000  Uiso   1.00
N241   N     0.09373   0.77303   0.77159   0.00000  Uiso   1.00
C242   C     0.02349   0.44626   0.74197   0.00000  Uiso   1.00
N243   N     0.02082   0.46308   0.78552   0.00000  Uiso   1.00
N244   N     0.03402   0.50243   0.79865   0.00000  Uiso   1.00
C245   C     0.04989   0.52660   0.76855   0.00000  Uiso   1.00
N246   N     0.05067   0.51019   0.72436   0.00000  Uiso   1.00
N247   N     0.03761   0.47079   0.71124   0.00000  Uiso   1.00
C248   C     0.01596   0.40167   0.73037   0.00000  Uiso   1.00
N249   N     0.02567   0.38360   0.69003   0.00000  Uiso   1.00
N250   N     0.02121   0.34304   0.68125   0.00000  Uiso   1.00
C251   C     0.00728   0.31911   0.71272   0.00000  Uiso   1.00
N252   N    -0.00225   0.33726   0.75301   0.00000  Uiso   1.00
N253   N     0.00229   0.37771   0.76181   0.00000  Uiso   1.00
C254   C     0.99862   0.27449   0.70208   0.00000  Uiso   1.00
N255   N     0.97690   0.25258   0.72989   0.00000  Uiso   1.00
N256   N     0.96340   0.21328   0.71746   0.00000  Uiso   1.00
C257   C     0.97179   0.19399   0.67725   0.00000  Uiso   1.00
N258   N     0.99481   0.21547   0.65015   0.00000  Uiso   1.00
N259   N     1.00801   0.25507   0.66231   0.00000  Uiso   1.00
C260   C     0.78476   0.77484   0.02267   0.00000  Uiso   1.00
N261   N     0.76473   0.79375   0.99191   0.00000  Uiso   1.00
N262   N     0.73259   0.80918   0.00260   0.00000  Uiso   1.00
C263   C     0.71924   0.80646   0.04449   0.00000  Uiso   1.00
N264   N     0.73886   0.78695   0.07513   0.00000  Uiso   1.00
N265   N     0.77091   0.77115   0.06426   0.00000  Uiso   1.00
C266   C     0.82267   0.76229   0.01242   0.00000  Uiso   1.00
N267   N     0.83995   0.73706   0.03821   0.00000  Uiso   1.00
N268   N     0.87533   0.72766   0.03007   0.00000  Uiso   1.00
C269   C     0.89499   0.74371   0.99638   0.00000  Uiso   1.00
N270   N     0.87767   0.76889   0.97062   0.00000  Uiso   1.00
N271   N     0.84215   0.77788   0.97839   0.00000  Uiso   1.00
C272   C     0.93420   0.73388   0.98763   0.00000  Uiso   1.00
N273   N     0.95799   0.75744   0.96308   0.00000  Uiso   1.00
N274   N    -0.00695   0.74785   0.95386   0.00000  Uiso   1.00
C275   C     0.00544   0.71415   0.96854   0.00000  Uiso   1.00
N276   N    -0.01828   0.69068   0.99320   0.00000  Uiso   1.00
N277   N     0.94689   0.70053   1.00289   0.00000  Uiso   1.00
C278   C     0.53431   0.69383   0.26972   0.00000  Uiso   1.00
N279   N     0.56854   0.70952   0.25420   0.00000  Uiso   1.00
N280   N     0.57352   0.74738   0.24284   0.00000  Uiso   1.00
C281   C     0.54414   0.77046   0.24568   0.00000  Uiso   1.00
N282   N     0.50980   0.75471   0.26091   0.00000  Uiso   1.00
N283   N     0.50511   0.71713   0.27316   0.00000  Uiso   1.00
C284   C     0.52807   0.65169   0.28035   0.00000  Uiso   1.00
N285   N     0.50724   0.64168   0.31577   0.00000  Uiso   1.00
N286   N     0.49937   0.60296   0.32366   0.00000  Uiso   1.00
C287   C     0.51155   0.57279   0.29605   0.00000  Uiso   1.00
N288   N     0.53236   0.58281   0.26056   0.00000  Uiso   1.00
N289   N     0.54088   0.62166   0.25318   0.00000  Uiso   1.00
C290   C     0.49752   0.53007   0.30096   0.00000  Uiso   1.00
N291   N     0.49032   0.50166   0.26343   0.00000  Uiso   1.00
N292   N     0.46973   0.46513   0.26579   0.00000  Uiso   1.00
C293   C     0.45634   0.45543   0.30599   0.00000  Uiso   1.00
N294   N     0.46519   0.48321   0.34392   0.00000  Uiso   1.00
N295   N     0.48522   0.51990   0.34143   0.00000  Uiso   1.00
loop_
_geom_bond_atom_site_label_1
_geom_bond_atom_site_label_2
_geom_bond_distance
_geom_bond_site_symmetry_2
_ccdc_geom_bond_type
Yb0    O3      2.108   .     S
Yb0    O4      2.096   .     S
Yb0    O5      2.163   .     S
Yb0    O7      2.096   .     S
Yb0    O8      2.097   .     S
Yb0    O12     2.164   .     S
Yb1    O6      2.129   .     S
Yb1    O9      2.096   .     S
Yb1    O10     2.117   .     S
Yb1    O13     2.138   .     S
Yb1    O14     2.107   .     S
Yb1    O16     2.090   .     S
C2     O14     1.295   .     A
C2     O16     1.290   .     A
C2     C275    1.466   .     S
O3     C11     1.292   .     A
O4     C11     1.288   .     A
O5     C15     1.272   .     A
O6     C15     1.267   .     A
O7     C17     1.289   .     A
O8     C17     1.290   .     A
O9     C18     1.289   .     A
O10    C18     1.294   .     A
C11    C245    1.467   .     S
O12    C19     1.273   .     A
O13    C19     1.265   .     A
C15    C239    1.470   .     S
C17    C185    1.459   .     S
C18    C95     1.469   .     S
C19    C191    1.462   .     S
Yb20   O23     2.099   .     S
Yb20   O24     2.094   .     S
Yb20   O25     2.141   .     S
Yb20   O27     2.088   .     S
Yb20   O28     2.115   .     S
Yb20   O32     2.189   .     S
Yb21   O26     2.184   .     S
Yb21   O29     2.096   .     S
Yb21   O30     2.105   .     S
Yb21   O33     2.164   .     S
Yb21   O34     2.095   .     S
Yb21   O36     2.100   .     S
C22    O34     1.292   .     A
C22    O36     1.292   .     A
C22    C113    1.465   .     S
O23    C31     1.291   .     A
O24    C31     1.291   .     A
O25    C35     1.263   .     A
O26    C35     1.273   .     A
O27    C37     1.288   .     A
O28    C37     1.293   .     A
O29    C38     1.289   .     A
O30    C38     1.291   .     A
C31    C149    1.464   .     S
O32    C39     1.278   .     A
O33    C39     1.270   .     A
C35    C167    1.462   .     S
C37    C263    1.467   .     S
C38    C281    1.460   .     S
C39    C83     1.472   .     S
Yb40   O43     2.102   .     S
Yb40   O44     2.105   .     S
Yb40   O45     2.176   .     S
Yb40   O47     2.108   .     S
Yb40   O48     2.107   .     S
Yb40   O52     2.184   .     S
Yb41   O46     2.123   .     S
Yb41   O49     2.093   .     S
Yb41   O50     2.125   .     S
Yb41   O53     2.147   .     S
Yb41   O54     2.107   .     S
Yb41   O56     2.091   .     S
C42    O54     1.293   .     A
C42    O56     1.290   .     A
C42    C119    1.465   .     S
O43    C51     1.287   .     A
O44    C51     1.290   .     A
O45    C55     1.275   .     A
O46    C55     1.267   .     A
O47    C57     1.290   .     A
O48    C57     1.291   .     A
O49    C58     1.287   .     A
O50    C58     1.295   .     A
C51    C137    1.462   .     S
O52    C59     1.276   .     A
O53    C59     1.264   .     A
C55    C155    1.470   .     S
C57    C227    1.470   .     S
C58    C221    1.470   .     S
C59    C257    1.465   .     S
Yb60   O63     2.098   .     S
Yb60   O64     2.105   .     S
Yb60   O65     2.157   .     S
Yb60   O67     2.104   .     S
Yb60   O68     2.097   .     S
Yb60   O72     2.167   .     S
Yb61   O66     2.125   .     S
Yb61   O69     2.106   .     S
Yb61   O70     2.108   .     S
Yb61   O73     2.147   .     S
Yb61   O74     2.101   .     S
Yb61   O76     2.097   .     S
C62    O74     1.292   .     A
C62    O76     1.291   .     A
C62    C131    1.465   .     S
O63    C71     1.289   .     A
O64    C71     1.291   .     A
O65    C75     1.265   .     A
O66    C75     1.263   .     A
O67    C77     1.289   .     A
O68    C77     1.290   .     A
O69    C78     1.291   .     A
O70    C78     1.292   .     A
C71    C293    1.463   .     S
O72    C79     1.277   .     A
O73    C79     1.272   .     A
C75    C101    1.466   .     S
C77    C203    1.463   .     S
C78    C209    1.468   .     S
C79    C173    1.455   .     S
C80    N81     1.357   .     A
C80    N85     1.359   .     A
C80    C86     1.471   .     S
N81    N82     1.333   .     A
N82    C83     1.357   .     A
C83    N84     1.358   .     A
N84    N85     1.332   .     A
C86    N87     1.356   .     A
C86    N91     1.360   .     A
N87    N88     1.332   1_554 A
N88    C89     1.358   .     A
N88    N87     1.332   1_556 A
C89    C92     1.472   .     S
C89    N90     1.358   1_556 A
N90    N91     1.334   .     A
N90    C89     1.358   1_554 A
C92    N93     1.360   .     A
C92    N97     1.356   .     A
N93    N94     1.335   .     A
N94    C95     1.358   .     A
C95    N96     1.357   .     A
N96    N97     1.331   .     A
C98    N99     1.357   .     A
C98    N103    1.358   .     A
C98    C104    1.466   .     S
N99    N100    1.331   .     A
N100   C101    1.355   .     A
C101   N102    1.359   .     A
N102   N103    1.333   .     A
C104   N105    1.358   .     A
C104   N109    1.356   .     A
N105   N106    1.334   .     A
N106   C107    1.358   .     A
C107   N108    1.357   .     A
C107   C110    1.467   .     S
N108   N109    1.331   .     A
C110   N111    1.357   .     A
C110   N115    1.358   .     A
N111   N112    1.331   .     A
N112   C113    1.356   1_545 A
C113   N112    1.356   1_565 A
C113   N114    1.358   1_565 A
N114   N115    1.333   .     A
N114   C113    1.358   1_545 A
C116   N117    1.359   .     A
C116   N121    1.357   .     A
C116   C122    1.469   .     S
N117   N118    1.334   .     A
N118   C119    1.358   .     A
C119   N120    1.356   .     A
N120   N121    1.331   .     A
C122   N123    1.357   .     A
C122   N127    1.359   .     A
N123   N124    1.331   .     A
N124   C125    1.357   .     A
C125   N126    1.359   .     A
C125   C128    1.468   .     S
N126   N127    1.334   .     A
C128   N129    1.358   .     A
C128   N133    1.358   .     A
N129   N130    1.333   .     A
N130   C131    1.358   .     A
C131   N132    1.356   .     A
N132   N133    1.332   .     A
C134   N135    1.356   .     A
C134   C140    1.464   .     S
C134   N139    1.357   1_545 A
N135   N136    1.334   .     A
N136   C137    1.359   .     A
C137   N138    1.355   .     A
N138   N139    1.331   1_545 A
N139   C134    1.357   1_565 A
N139   N138    1.331   1_565 A
C140   N145    1.359   .     A
C140   N141    1.355   1_545 A
N141   N142    1.329   .     A
N141   C140    1.355   1_565 A
N142   C143    1.357   .     A
C143   C146    1.467   .     S
C143   N144    1.359   1_565 A
N144   N145    1.335   .     A
N144   C143    1.359   1_545 A
C146   N151    1.356   .     A
C146   N147    1.358   1_565 A
N147   C146    1.358   1_545 A
N147   N148    1.334   1_556 A
N148   N147    1.334   1_554 A
N148   C149    1.359   1_545 A
C149   N150    1.356   .     A
C149   N148    1.359   1_565 A
N150   N151    1.330   1_554 A
N151   N150    1.330   1_556 A
C152   N157    1.357   .     A
C152   C158    1.470   .     S
C152   N153    1.359   1_545 A
N153   C152    1.359   1_565 A
N153   N154    1.334   1_565 A
N154   C155    1.359   .     A
N154   N153    1.334   1_545 A
C155   N156    1.356   .     A
N156   N157    1.331   .     A
C158   N159    1.356   .     A
C158   N163    1.359   1_545 A
N159   N160    1.330   .     A
N160   C161    1.357   1_545 A
C161   N162    1.359   .     A
C161   C164    1.470   .     S
C161   N160    1.357   1_565 A
N162   N163    1.335   .     A
N163   C158    1.359   1_565 A
C164   N165    1.360   .     A
C164   N169    1.356   1_565 A
N165   N166    1.336   .     A
N166   C167    1.359   .     A
C167   N168    1.355   .     A
N168   N169    1.329   1_565 A
N169   C164    1.356   1_545 A
N169   N168    1.329   1_545 A
C170   N171    1.355   .     A
C170   N175    1.360   .     A
C170   C176    1.465   .     S
N171   N172    1.329   .     A
N172   C173    1.355   .     A
C173   N174    1.358   .     A
N174   N175    1.334   .     A
C176   N177    1.357   .     A
C176   N181    1.357   .     A
N177   N178    1.333   .     A
N178   C179    1.358   .     A
C179   N180    1.356   .     A
C179   C182    1.465   .     S
N180   N181    1.331   .     A
C182   N183    1.358   .     A
C182   N187    1.357   .     A
N183   N184    1.332   .     A
N184   C185    1.357   .     A
C185   N186    1.357   .     A
N186   N187    1.331   .     A
C188   N189    1.356   .     A
C188   C194    1.465   .     S
C188   N193    1.359   1_554 A
N189   N190    1.331   1_554 A
N190   C191    1.358   .     A
N190   N189    1.331   1_556 A
C191   N192    1.357   .     A
N192   N193    1.333   .     A
N193   C188    1.359   1_556 A
C194   N195    1.356   .     A
C194   N199    1.359   .     A
N195   N196    1.330   .     A
N196   C197    1.357   .     A
C197   N198    1.358   .     A
C197   C200    1.465   .     S
N198   N199    1.334   .     A
C200   N201    1.358   .     A
C200   N205    1.357   .     A
N201   N202    1.334   .     A
N202   C203    1.359   .     A
C203   N204    1.356   .     A
N204   N205    1.330   .     A
C206   N207    1.358   .     A
C206   N211    1.357   .     A
C206   C212    1.471   .     S
N207   N208    1.334   .     A
N208   C209    1.357   .     A
C209   N210    1.358   .     A
N210   N211    1.333   .     A
C212   N213    1.359   .     A
C212   N217    1.357   .     A
N213   N214    1.335   .     A
N214   C215    1.358   .     A
C215   N216    1.358   .     A
C215   C218    1.472   .     S
N216   N217    1.333   .     A
C218   N219    1.355   .     A
C218   N223    1.360   .     A
N219   N220    1.332   .     A
N220   C221    1.357   1_455 A
C221   N222    1.358   .     A
C221   N220    1.357   1_655 A
N222   N223    1.337   1_655 A
N223   N222    1.337   1_455 A
C224   N229    1.359   .     A
C224   C230    1.472   .     S
C224   N225    1.358   1_455 A
N225   N226    1.333   .     A
N225   C224    1.358   1_655 A
N226   C227    1.359   1_565 A
C227   N226    1.359   1_545 A
C227   N228    1.358   1_545 A
N228   C227    1.358   1_565 A
N228   N229    1.333   1_655 A
N229   N228    1.333   1_455 A
C230   N231    1.358   .     A
C230   N235    1.359   .     A
N231   N232    1.333   .     A
N232   C233    1.359   .     A
C233   N234    1.358   .     A
C233   C236    1.472   .     S
N234   N235    1.333   .     A
C236   N237    1.359   .     A
C236   N241    1.357   .     A
N237   N238    1.334   .     A
N238   C239    1.358   .     A
C239   N240    1.358   .     A
N240   N241    1.332   .     A
C242   N243    1.358   .     A
C242   N247    1.357   .     A
C242   C248    1.471   .     S
N243   N244    1.332   .     A
N244   C245    1.357   .     A
C245   N246    1.359   .     A
N246   N247    1.333   .     A
C248   N249    1.360   .     A
C248   N253    1.356   .     A
N249   N250    1.335   .     A
N250   C251    1.359   .     A
C251   N252    1.357   .     A
C251   C254    1.471   1_455 S
N252   N253    1.331   .     A
C254   N255    1.355   .     A
C254   N259    1.360   .     A
C254   C251    1.471   1_655 S
N255   N256    1.330   .     A
N256   C257    1.356   .     A
C257   N258    1.357   .     A
N258   N259    1.336   .     A
C260   N265    1.360   .     A
C260   C266    1.470   .     S
C260   N261    1.356   1_554 A
N261   C260    1.356   1_556 A
N261   N262    1.330   1_556 A
N262   C263    1.357   .     A
N262   N261    1.330   1_554 A
C263   N264    1.358   .     A
N264   N265    1.335   .     A
C266   N267    1.358   .     A
C266   N271    1.358   1_554 A
N267   N268    1.334   .     A
N268   C269    1.359   1_554 A
C269   N270    1.357   .     A
C269   C272    1.470   .     S
C269   N268    1.359   1_556 A
N270   N271    1.332   .     A
N271   C266    1.358   1_556 A
C272   N273    1.359   .     A
C272   N277    1.357   .     A
N273   N274    1.333   1_655 A
N274   C275    1.357   .     A
N274   N273    1.333   1_455 A
C275   N276    1.358   .     A
N276   N277    1.332   1_455 A
N277   N276    1.332   1_655 A
C278   N279    1.356   .     A
C278   N283    1.358   .     A
C278   C284    1.463   .     S
N279   N280    1.332   .     A
N280   C281    1.357   .     A
C281   N282    1.356   .     A
N282   N283    1.333   .     A
C284   N285    1.356   .     A
C284   N289    1.358   .     A
N285   N286    1.331   .     A
N286   C287    1.358   .     A
C287   N288    1.358   .     A
C287   C290    1.466   .     S
N288   N289    1.333   .     A
C290   N291    1.358   .     A
C290   N295    1.356   .     A
N291   N292    1.333   .     A
N292   C293    1.358   .     A
C293   N294    1.357   .     A
N294   N295    1.331   .     A
