data_lcy+N394+E35
_audit_creation_date              2025-01-21
_audit_creation_method            'Materials Studio'
_symmetry_space_group_name_H-M    'P1'
_symmetry_Int_Tables_number       1
_symmetry_cell_setting            triclinic
loop_
_symmetry_equiv_pos_as_xyz
  x,y,z
_cell_length_a                    27.2549
_cell_length_b                    26.1432
_cell_length_c                    23.3639
_cell_angle_alpha                 94.8095
_cell_angle_beta                  99.0235
_cell_angle_gamma                 90.1781
loop_
_atom_site_label
_atom_site_type_symbol
_atom_site_fract_x
_atom_site_fract_y
_atom_site_fract_z
_atom_site_U_iso_or_equiv
_atom_site_adp_type
_atom_site_occupancy
Pr0    Pr    0.09273   0.69448   0.86239   0.00000  Uiso   1.00
Pr1    Pr    0.12364   0.63303   0.96760   0.00000  Uiso   1.00
O2     O     0.05183   0.67223   0.98972   0.00000  Uiso   1.00
O3     O     0.02974   0.71784   0.91175   0.00000  Uiso   1.00
O4     O     0.05325   0.72192   0.77571   0.00000  Uiso   1.00
O5     O     0.10218   0.77399   0.83386   0.00000  Uiso   1.00
O6     O     0.14807   0.70798   0.94425   0.00000  Uiso   1.00
O7     O     0.13826   0.77049   0.88856   0.00000  Uiso   1.00
C8     C     0.05563   0.56994   0.89635   0.00000  Uiso   1.00
C9     C     0.02106   0.70059   0.95919   0.00000  Uiso   1.00
C10    C     0.07286   0.76702   0.78583   0.00000  Uiso   1.00
C11    C     0.16872   0.54594   0.99594   0.00000  Uiso   1.00
C12    C     0.18721   0.62642   0.85472   0.00000  Uiso   1.00
C13    C     0.16445   0.75479   0.93067   0.00000  Uiso   1.00
O14    O     0.15975   0.66095   0.82988   0.00000  Uiso   1.00
O15    O     0.18074   0.60818   0.90365   0.00000  Uiso   1.00
O16    O     0.18869   0.57849   0.96790   0.00000  Uiso   1.00
O17    O     0.12358   0.55492   1.00195   0.00000  Uiso   1.00
O18    O     0.08198   0.60841   0.87594   0.00000  Uiso   1.00
O19    O     0.06897   0.56566   0.94769   0.00000  Uiso   1.00
Pr20   Pr    0.62007   0.86349   0.04359   0.00000  Uiso   1.00
Pr21   Pr    0.59339   0.78710   0.11846   0.00000  Uiso   1.00
O22    O     0.65536   0.74248   0.07835   0.00000  Uiso   1.00
O23    O     0.66426   0.79740   0.00856   0.00000  Uiso   1.00
O24    O     0.66072   0.92862   0.01013   0.00000  Uiso   1.00
O25    O     0.59534   0.89542   0.95655   0.00000  Uiso   1.00
O26    O     0.56427   0.79815   0.02705   0.00000  Uiso   1.00
O27    O     0.54652   0.86445   0.97951   0.00000  Uiso   1.00
C28    C     0.65913   0.84226   0.19404   0.00000  Uiso   1.00
C29    C     0.67659   0.75688   0.03578   0.00000  Uiso   1.00
C30    C     0.63117   0.92769   0.96179   0.00000  Uiso   1.00
C31    C     0.57262   0.71522   0.18726   0.00000  Uiso   1.00
C32    C     0.54818   0.90089   0.13399   0.00000  Uiso   1.00
C33    C     0.52832   0.82745  -0.00252   0.00000  Uiso   1.00
O34    O     0.57349   0.91401   0.09540   0.00000  Uiso   1.00
O35    O     0.54345   0.85387   0.14671   0.00000  Uiso   1.00
O36    O     0.54800   0.71938   0.13670   0.00000  Uiso   1.00
O37    O     0.60626   0.74991   0.20424   0.00000  Uiso   1.00
O38    O     0.65849   0.84304   0.13347   0.00000  Uiso   1.00
O39    O     0.63551   0.80642   0.20768   0.00000  Uiso   1.00
Pr40   Pr    0.91234   0.16830   0.56510   0.00000  Uiso   1.00
Pr41   Pr    0.85186   0.13747   0.65950   0.00000  Uiso   1.00
O42    O     0.90344   0.20366   0.70835   0.00000  Uiso   1.00
O43    O     0.94010   0.23047   0.63588   0.00000  Uiso   1.00
O44    O     0.94602   0.20839   0.49579   0.00000  Uiso   1.00
O45    O     0.98936   0.15350   0.54324   0.00000  Uiso   1.00
O46    O     0.91366   0.10221   0.62047   0.00000  Uiso   1.00
O47    O     0.98413   0.12520   0.60159   0.00000  Uiso   1.00
C48    C     0.80504   0.21868   0.60629   0.00000  Uiso   1.00
C49    C     0.93096   0.23561   0.68802   0.00000  Uiso   1.00
C50    C     0.98737   0.18535   0.50495   0.00000  Uiso   1.00
C51    C     0.76129   0.10389   0.67109   0.00000  Uiso   1.00
C52    C     0.83582   0.07928   0.52134   0.00000  Uiso   1.00
C53    C     0.96407   0.09676   0.63001   0.00000  Uiso   1.00
O54    O     0.87470   0.10194   0.50913   0.00000  Uiso   1.00
O55    O     0.81837   0.08851   0.57060   0.00000  Uiso   1.00
O56    O     0.78736   0.08013   0.63661   0.00000  Uiso   1.00
O57    O     0.77899   0.14754   0.69361   0.00000  Uiso   1.00
O58    O     0.83100   0.18221   0.57773   0.00000  Uiso   1.00
O59    O     0.80245   0.20805   0.65496   0.00000  Uiso   1.00
Pr60   Pr    0.38281   0.39715   0.45953   0.00000  Uiso   1.00
Pr61   Pr    0.42005   0.31278   0.38510   0.00000  Uiso   1.00
O62    O     0.34944   0.27343   0.40593   0.00000  Uiso   1.00
O63    O     0.31941   0.34058   0.45894   0.00000  Uiso   1.00
O64    O     0.34515   0.47068   0.49129   0.00000  Uiso   1.00
O65    O     0.38464   0.42449   0.55385   0.00000  Uiso   1.00
O66    O     0.43787   0.33398   0.47993   0.00000  Uiso   1.00
O67    O     0.46594   0.41210   0.49391   0.00000  Uiso   1.00
C68    C     0.36473   0.35639   0.30070   0.00000  Uiso   1.00
C69    C     0.31556   0.29498   0.43257   0.00000  Uiso   1.00
C70    C     0.35777   0.46336   0.54505   0.00000  Uiso   1.00
C71    C     0.44777   0.22856   0.32543   0.00000  Uiso   1.00
C72    C     0.47499   0.42284   0.38848   0.00000  Uiso   1.00
C73    C     0.47800   0.36737   0.49657   0.00000  Uiso   1.00
O74    O     0.44714   0.44024   0.42655   0.00000  Uiso   1.00
O75    O     0.47649   0.37458   0.36974   0.00000  Uiso   1.00
O76    O     0.46459   0.24108   0.37877   0.00000  Uiso   1.00
O77    O     0.41886   0.26149   0.30039   0.00000  Uiso   1.00
O78    O     0.36957   0.37648   0.35963   0.00000  Uiso   1.00
O79    O     0.38623   0.31590   0.29206   0.00000  Uiso   1.00
C80    C     0.37171   0.80144   0.98326   0.00000  Uiso   1.00
C81    C     0.40507   0.76619   1.00984   0.00000  Uiso   1.00
C82    C     0.45621   0.77387   1.01283   0.00000  Uiso   1.00
C83    C     0.47441   0.81594   0.98872   0.00000  Uiso   1.00
C84    C     0.44006   0.84962  -0.03853   0.00000  Uiso   1.00
N85    N     0.39042   0.84158   0.95939   0.00000  Uiso   1.00
C86    C     0.31685   0.79497   0.97783   0.00000  Uiso   1.00
N87    N     0.28715   0.81954   0.93651   0.00000  Uiso   1.00
C88    C     0.23699   0.81185   0.92507   0.00000  Uiso   1.00
C89    C     0.21403   0.77668   0.95510   0.00000  Uiso   1.00
C90    C     0.24333   0.75350   1.00019   0.00000  Uiso   1.00
C91    C     0.29452   0.76281   1.01204   0.00000  Uiso   1.00
H92    H     0.48153   0.74727   1.03471   0.00000  Uiso   1.00
H93    H     0.45267   0.88290  -0.05714   0.00000  Uiso   1.00
H94    H     0.21573   0.83033   0.88953   0.00000  Uiso   1.00
H95    H     0.22698   0.72599   1.02400   0.00000  Uiso   1.00
H96    H     0.39232   0.73270   1.02771   0.00000  Uiso   1.00
H97    H     0.31599   0.74370   1.04664   0.00000  Uiso   1.00
C98    C     0.47807   0.08041   0.25022   0.00000  Uiso   1.00
C99    C     0.50539   0.09959   0.30345   0.00000  Uiso   1.00
C100   C     0.49586   0.14836   0.32699   0.00000  Uiso   1.00
C101   C     0.45931   0.17840   0.29750   0.00000  Uiso   1.00
C102   C     0.43215   0.15766   0.24450   0.00000  Uiso   1.00
N103   N     0.44233   0.10972   0.22204   0.00000  Uiso   1.00
C104   C     0.49450   0.03320   0.22089   0.00000  Uiso   1.00
N105   N     0.46473  -0.00966   0.20799   0.00000  Uiso   1.00
C106   C     0.48092   0.94601   0.18215   0.00000  Uiso   1.00
C107   C     0.52889   0.94435   0.16746   0.00000  Uiso   1.00
C108   C     0.55973   0.98813   0.18145   0.00000  Uiso   1.00
C109   C     0.54274   0.03233   0.20799   0.00000  Uiso   1.00
H110   H     0.51738   0.16268   0.36823   0.00000  Uiso   1.00
H111   H     0.40304   0.17945   0.22111   0.00000  Uiso   1.00
H112   H     0.45619   0.91293   0.17173   0.00000  Uiso   1.00
H113   H     0.59717   0.98836   0.17120   0.00000  Uiso   1.00
H114   H     0.53472   0.07734   0.32585   0.00000  Uiso   1.00
H115   H     0.56691   0.06596   0.21787   0.00000  Uiso   1.00
C116   C     0.68092   0.30421   0.54353   0.00000  Uiso   1.00
C117   C     0.71264   0.32384   0.59384   0.00000  Uiso   1.00
C118   C     0.75682   0.29876   0.61161   0.00000  Uiso   1.00
C119   C     0.77015   0.25529   0.57846   0.00000  Uiso   1.00
C120   C     0.73971   0.23973   0.52575   0.00000  Uiso   1.00
N121   N     0.69567   0.26330   0.51066   0.00000  Uiso   1.00
C122   C     0.62942   0.32235   0.53029   0.00000  Uiso   1.00
N123   N     0.59233   0.28743   0.50966   0.00000  Uiso   1.00
C124   C     0.54370   0.30068   0.49985   0.00000  Uiso   1.00
C125   C     0.53017   0.35183   0.51055   0.00000  Uiso   1.00
C126   C     0.56779   0.38860   0.53121   0.00000  Uiso   1.00
C127   C     0.61742   0.37402   0.54142   0.00000  Uiso   1.00
H128   H     0.77869   0.31092   0.65340   0.00000  Uiso   1.00
H129   H     0.74829   0.20567   0.49973   0.00000  Uiso   1.00
H130   H     0.51581   0.27135   0.48333   0.00000  Uiso   1.00
H131   H     0.55880   0.42862   0.53932   0.00000  Uiso   1.00
H132   H     0.70156   0.35542   0.62178   0.00000  Uiso   1.00
H133   H     0.64603   0.40284   0.55727   0.00000  Uiso   1.00
C134   C     0.66883   0.03240   0.76803   0.00000  Uiso   1.00
C135   C     0.66548   0.08554   0.76540   0.00000  Uiso   1.00
C136   C     0.69091   0.10925   0.72717   0.00000  Uiso   1.00
C137   C     0.71929   0.07980   0.69183   0.00000  Uiso   1.00
C138   C     0.71684   0.02615   0.69119   0.00000  Uiso   1.00
N139   N     0.69335   1.00411   0.73029   0.00000  Uiso   1.00
C140   C     0.65635   1.00891   0.81864   0.00000  Uiso   1.00
N141   N     0.69267   1.00524   0.86516   0.00000  Uiso   1.00
C142   C     0.68484   0.98160   0.91260   0.00000  Uiso   1.00
C143   C     0.63846   0.95903   0.91419   0.00000  Uiso   1.00
C144   C     0.60028   0.96300   0.86683   0.00000  Uiso   1.00
C145   C     0.60906   0.98828   0.81897   0.00000  Uiso   1.00
H146   H     0.69213   0.15079   0.72910   0.00000  Uiso   1.00
H147   H     0.73845   0.00215   0.66478   0.00000  Uiso   1.00
H148   H     0.71536   0.97872   0.94784   0.00000  Uiso   1.00
H149   H     0.56401   0.94578   0.86640   0.00000  Uiso   1.00
H150   H     0.64697   0.10876   0.79591   0.00000  Uiso   1.00
H151   H     0.57976  -0.00922   0.78225   0.00000  Uiso   1.00
C152   C     0.76220   0.97914   0.37951   0.00000  Uiso   1.00
C153   C     0.81154  -0.00542   0.38072   0.00000  Uiso   1.00
C154   C     0.83543   0.02567   0.42803   0.00000  Uiso   1.00
C155   C     0.81063   0.04185   0.47469   0.00000  Uiso   1.00
C156   C     0.76177   0.02406   0.47299   0.00000  Uiso   1.00
N157   N     0.73907   0.99349   0.42600   0.00000  Uiso   1.00
C158   C     0.73576   0.94590   0.32977   0.00000  Uiso   1.00
N159   N     0.70029   0.91260   0.33958   0.00000  Uiso   1.00
C160   C     0.67589   0.87949   0.29663   0.00000  Uiso   1.00
C161   C     0.68661   0.87861   0.23958   0.00000  Uiso   1.00
C162   C     0.72196   0.91345   0.22781   0.00000  Uiso   1.00
C163   C     0.74673   0.94718   0.27287   0.00000  Uiso   1.00
H164   H     0.87353   0.03735   0.42768   0.00000  Uiso   1.00
H165   H     0.74134   0.03532   0.50805   0.00000  Uiso   1.00
H166   H     0.64792   0.85391   0.30718   0.00000  Uiso   1.00
H167   H     0.73059   0.91437   0.18421   0.00000  Uiso   1.00
H168   H     0.83192  -0.01769   0.34594   0.00000  Uiso   1.00
H169   H     0.77371   0.97423   0.26304   0.00000  Uiso   1.00
C170   C     0.30407   0.54472   0.68832   0.00000  Uiso   1.00
C171   C     0.29725   0.56578   0.63409   0.00000  Uiso   1.00
C172   C     0.31557   0.54020   0.58695   0.00000  Uiso   1.00
C173   C     0.34111   0.49422   0.59414   0.00000  Uiso   1.00
C174   C     0.34826   0.47533   0.64942   0.00000  Uiso   1.00
N175   N     0.32920   0.50020   0.69414   0.00000  Uiso   1.00
C176   C     0.28138   0.56762   0.73781   0.00000  Uiso   1.00
N177   N     0.26382   0.53634   0.77424   0.00000  Uiso   1.00
C178   C     0.23757   0.55459   0.81652   0.00000  Uiso   1.00
C179   C     0.22682   0.60695   0.82266   0.00000  Uiso   1.00
C180   C     0.24777   0.64011   0.78843   0.00000  Uiso   1.00
C181   C     0.27500   0.62070   0.74612   0.00000  Uiso   1.00
H182   H     0.30909   0.55586   0.54498   0.00000  Uiso   1.00
H183   H     0.36771   0.43984   0.65676   0.00000  Uiso   1.00
H184   H     0.22209   0.52784   0.84211   0.00000  Uiso   1.00
H185   H     0.24092   0.68097   0.79247   0.00000  Uiso   1.00
H186   H     0.27635   0.60050   0.62745   0.00000  Uiso   1.00
H187   H     0.28963   0.64687   0.71920   0.00000  Uiso   1.00
C188   C     0.25429   0.44999   0.10856   0.00000  Uiso   1.00
C189   C     0.27644   0.47071   0.06502   0.00000  Uiso   1.00
C190   C     0.24762   0.49891   0.02421   0.00000  Uiso   1.00
C191   C     0.19688   0.50558   0.02646   0.00000  Uiso   1.00
C192   C     0.17565   0.48082   0.06794   0.00000  Uiso   1.00
N193   N     0.20466   0.45508   0.10821   0.00000  Uiso   1.00
C194   C     0.28397   0.42623   0.15728   0.00000  Uiso   1.00
N195   N     0.27203   0.43510   0.21174   0.00000  Uiso   1.00
C196   C     0.29783   0.41431   0.25867   0.00000  Uiso   1.00
C197   C     0.33732   0.38152   0.25159   0.00000  Uiso   1.00
C198   C     0.34988   0.37153   0.19573   0.00000  Uiso   1.00
C199   C     0.32372   0.39429   0.14862   0.00000  Uiso   1.00
H200   H     0.26548   0.51788  -0.00671   0.00000  Uiso   1.00
H201   H     0.13666   0.48506   0.07120   0.00000  Uiso   1.00
H202   H     0.28676   0.42244   0.30097   0.00000  Uiso   1.00
H203   H     0.38004   0.34614   0.18852   0.00000  Uiso   1.00
H204   H     0.31605   0.46795   0.06478   0.00000  Uiso   1.00
H205   H     0.33368   0.38603   0.10576   0.00000  Uiso   1.00
C206   C     0.17129   0.23523   0.43306   0.00000  Uiso   1.00
C207   C     0.17908   0.27010   0.39275   0.00000  Uiso   1.00
C208   C     0.22716   0.28732   0.39108   0.00000  Uiso   1.00
C209   C     0.26738   0.26915   0.42829   0.00000  Uiso   1.00
C210   C     0.25876   0.23227   0.46565   0.00000  Uiso   1.00
N211   N     0.21138   0.21671   0.46738   0.00000  Uiso   1.00
C212   C     0.12095   0.22032   0.44243   0.00000  Uiso   1.00
N213   N     0.11628   0.17799   0.47125   0.00000  Uiso   1.00
C214   C     0.07295   0.16463   0.48802   0.00000  Uiso   1.00
C215   C     0.03099   0.19544   0.47726   0.00000  Uiso   1.00
C216   C     0.03406   0.23834   0.44588   0.00000  Uiso   1.00
C217   C     0.07907   0.25109   0.42849   0.00000  Uiso   1.00
H218   H     0.23296   0.31620   0.36203   0.00000  Uiso   1.00
H219   H     0.28910   0.21781   0.49528   0.00000  Uiso   1.00
H220   H     0.07212   0.13112   0.51211   0.00000  Uiso   1.00
H221   H     0.00258   0.26331   0.43742   0.00000  Uiso   1.00
H222   H     0.14867   0.28484   0.36360   0.00000  Uiso   1.00
H223   H     0.08134   0.28609   0.40741   0.00000  Uiso   1.00
C224   C     1.02296   0.95616   0.68816   0.00000  Uiso   1.00
C225   C     0.05489   0.99122   0.66902   0.00000  Uiso   1.00
C226   C     1.03692   0.03897   0.65305   0.00000  Uiso   1.00
C227   C     0.98755   0.05189   0.65678   0.00000  Uiso   1.00
C228   C     0.95759   0.01653   0.67810   0.00000  Uiso   1.00
N229   N     0.97557   0.97015   0.69237   0.00000  Uiso   1.00
C230   C     1.03888   0.90445   0.70429   0.00000  Uiso   1.00
N231   N     1.00395   0.86627   0.70061   0.00000  Uiso   1.00
C232   C     1.01475   0.81948   0.72068   0.00000  Uiso   1.00
C233   C     0.06276   0.80991   0.74857   0.00000  Uiso   1.00
C234   C     0.09973   0.84791   0.75067   0.00000  Uiso   1.00
C235   C     0.08810   0.89500   0.72837   0.00000  Uiso   1.00
H236   H     0.06089   0.06483   0.63576   0.00000  Uiso   1.00
H237   H     0.91917   0.02476   0.68124   0.00000  Uiso   1.00
H238   H     0.98511   0.79150   0.71893   0.00000  Uiso   1.00
H239   H     0.13723   0.84220   0.77239   0.00000  Uiso   1.00
H240   H     0.09268   0.98133   0.66440   0.00000  Uiso   1.00
H241   H     0.11671   0.92458   0.73345   0.00000  Uiso   1.00
C242   C     0.99278   0.43390   0.80150   0.00000  Uiso   1.00
C243   C     0.01666   0.46958   0.77272   0.00000  Uiso   1.00
C244   C     0.03353   0.51670   0.80205   0.00000  Uiso   1.00
C245   C     0.02638   0.52837   0.85965   0.00000  Uiso   1.00
C246   C     0.99909   0.49341   0.88533   0.00000  Uiso   1.00
N247   N     0.98353   0.44754   0.85623   0.00000  Uiso   1.00
C248   C     0.97948   0.38115   0.77483   0.00000  Uiso   1.00
N249   N     0.94048   0.35538   0.78996   0.00000  Uiso   1.00
C250   C     0.92610   0.30722   0.76601   0.00000  Uiso   1.00
C251   C     0.95147   0.28245   0.72394   0.00000  Uiso   1.00
C252   C     0.99311   0.30747   0.70992   0.00000  Uiso   1.00
C253   C     0.00733   0.35645   0.73532   0.00000  Uiso   1.00
H254   H     0.05483   0.54249   0.78109   0.00000  Uiso   1.00
H255   H     0.99271   0.50129   0.92980   0.00000  Uiso   1.00
H256   H     0.89342   0.28954   0.77755   0.00000  Uiso   1.00
H257   H     0.01403   0.28959   0.67807   0.00000  Uiso   1.00
H258   H     0.02344   0.46082   0.72859   0.00000  Uiso   1.00
H259   H     0.03982   0.37458   0.72395   0.00000  Uiso   1.00
C260   C     0.81850   0.71400   1.00008   0.00000  Uiso   1.00
C261   C     0.78068   0.72203   0.95359   0.00000  Uiso   1.00
C262   C     0.73235   0.73065   0.96417   0.00000  Uiso   1.00
C263   C     0.72109   0.73004   0.02062   0.00000  Uiso   1.00
C264   C     0.75872   0.71626   0.06473   0.00000  Uiso   1.00
N265   N     0.80611   0.70961   0.05378   0.00000  Uiso   1.00
C266   C     0.87158   0.71392   0.99229   0.00000  Uiso   1.00
N267   N     0.90522   0.68625   0.02603   0.00000  Uiso   1.00
C268   C     0.95403   0.68408   1.01923   0.00000  Uiso   1.00
C269   C     0.97139   0.71065   0.97617   0.00000  Uiso   1.00
C270   C     0.93770   0.74143   0.94323   0.00000  Uiso   1.00
C271   C     0.88816   0.74327   0.95120   0.00000  Uiso   1.00
H272   H     0.70439   0.74096   0.92891   0.00000  Uiso   1.00
H273   H     0.75159   0.71557   0.10896   0.00000  Uiso   1.00
H274   H    -0.02135   0.65987   0.04571   0.00000  Uiso   1.00
H275   H     0.94917   0.76287   0.90975   0.00000  Uiso   1.00
H276   H     0.78860   0.72375   0.90983   0.00000  Uiso   1.00
H277   H     0.86319   0.76743   0.92511   0.00000  Uiso   1.00
C278   C     0.55147   0.58755   0.28351   0.00000  Uiso   1.00
C279   C     0.58179   0.62904   0.31050   0.00000  Uiso   1.00
C280   C     0.58837   0.67121   0.27937   0.00000  Uiso   1.00
C281   C     0.56444   0.67225   0.22182   0.00000  Uiso   1.00
C282   C     0.53474   0.62992   0.19636   0.00000  Uiso   1.00
N283   N     0.52921   0.58918   0.22734   0.00000  Uiso   1.00
C284   C     0.54120   0.54284   0.31468   0.00000  Uiso   1.00
N285   N     0.52870   0.49698   0.28353   0.00000  Uiso   1.00
C286   C     0.51238   0.45601   0.30790   0.00000  Uiso   1.00
C287   C     0.50558   0.46084   0.36631   0.00000  Uiso   1.00
C288   C     0.52015   0.50700   0.39982   0.00000  Uiso   1.00
C289   C     0.53836   0.54793   0.37433   0.00000  Uiso   1.00
H290   H     0.61223   0.70285   0.30015   0.00000  Uiso   1.00
H291   H     0.51636   0.62884   0.15169   0.00000  Uiso   1.00
H292   H     0.50102   0.42119   0.28053   0.00000  Uiso   1.00
H293   H     0.51509   0.51230   0.44501   0.00000  Uiso   1.00
H294   H     0.60072   0.62875   0.35479   0.00000  Uiso   1.00
H295   H     0.54678   0.58407   0.40022   0.00000  Uiso   1.00
loop_
_geom_bond_atom_site_label_1
_geom_bond_atom_site_label_2
_geom_bond_distance
_geom_bond_site_symmetry_2
_ccdc_geom_bond_type
Pr0    O3      2.272   .     S
Pr0    O4      2.310   .     S
Pr0    O5      2.262   .     S
Pr0    O6      2.244   .     S
Pr0    O7      2.325   .     S
Pr0    O14     2.239   .     S
Pr0    O18     2.322   .     S
Pr1    O2      2.321   .     S
Pr1    O6      2.206   .     S
Pr1    O15     2.377   .     S
Pr1    O16     2.278   .     S
Pr1    O17     2.256   .     S
Pr1    O18     2.300   .     S
Pr1    O19     2.273   .     S
O2     C9      1.291   .     A
O3     C9      1.286   .     A
O4     C10     1.281   .     A
O5     C10     1.271   .     A
O6     C13     1.380   .     S
O7     C13     1.223   .     D
C8     O18     1.392   .     S
C8     O19     1.212   .     D
C8     C245    1.475   .     S
C9     C269    1.487   1_455 S
C10    C233    1.477   .     S
C11    O16     1.285   .     A
C11    O17     1.280   .     A
C11    C191    1.473   1_556 S
C12    O14     1.291   .     A
C12    O15     1.311   .     A
C12    C179    1.476   .     S
C13    C89     1.476   .     S
Pr20   O23     2.278   .     S
Pr20   O24     2.285   .     S
Pr20   O26     2.251   .     S
Pr20   O34     2.246   .     S
Pr20   O38     2.301   .     S
Pr20   O25     2.268   1_554 S
Pr20   O27     2.308   1_554 S
Pr21   O22     2.327   .     S
Pr21   O26     2.202   .     S
Pr21   O35     2.332   .     S
Pr21   O36     2.264   .     S
Pr21   O37     2.279   .     S
Pr21   O38     2.261   .     S
Pr21   O39     2.233   .     S
O22    C29     1.307   .     A
O23    C29     1.299   .     A
O24    C30     1.279   1_554 A
O25    C30     1.273   .     A
O25    Pr20    2.268   1_556 S
O26    C33     1.380   .     S
O27    Pr20    2.308   1_556 S
O27    C33     1.220   1_556 D
C28    O38     1.414   .     S
C28    O39     1.227   .     D
C28    C161    1.474   .     S
C29    C263    1.479   .     S
C30    C143    1.473   .     S
C30    O24     1.279   1_556 A
C31    O36     1.277   .     A
C31    O37     1.281   .     A
C31    C281    1.473   .     S
C32    O34     1.285   .     A
C32    O35     1.299   .     A
C32    C107    1.470   .     S
C33    O27     1.220   1_554 D
C33    C83     1.478   1_554 S
Pr40   O43     2.258   .     S
Pr40   O44     2.304   .     S
Pr40   O45     2.264   .     S
Pr40   O46     2.241   .     S
Pr40   O47     2.340   .     S
Pr40   O54     2.227   .     S
Pr40   O58     2.308   .     S
Pr41   O42     2.329   .     S
Pr41   O46     2.206   .     S
Pr41   O55     2.395   .     S
Pr41   O56     2.275   .     S
Pr41   O57     2.261   .     S
Pr41   O58     2.319   .     S
Pr41   O59     2.288   .     S
O42    C49     1.289   .     A
O43    C49     1.277   .     A
O44    C50     1.276   .     A
O45    C50     1.268   .     A
O46    C53     1.367   .     S
O47    C53     1.219   .     D
C48    O58     1.378   .     S
C48    O59     1.206   .     D
C48    C119    1.470   .     S
C49    C251    1.481   .     S
C50    C215    1.473   1_655 S
C51    O56     1.280   .     A
C51    O57     1.276   .     A
C51    C137    1.471   .     S
C52    O54     1.294   .     A
C52    O55     1.317   .     A
C52    C155    1.483   .     S
C53    C227    1.476   .     S
Pr60   O63     2.269   .     S
Pr60   O64     2.305   .     S
Pr60   O65     2.252   .     S
Pr60   O66     2.265   .     S
Pr60   O67     2.303   .     S
Pr60   O74     2.344   .     S
Pr60   O78     2.322   .     S
Pr61   O62     2.316   .     S
Pr61   O66     2.215   .     S
Pr61   O75     2.315   .     S
Pr61   O76     2.244   .     S
Pr61   O77     2.291   .     S
Pr61   O78     2.224   .     S
Pr61   O79     2.232   .     S
O62    C69     1.297   .     A
O63    C69     1.291   .     A
O64    C70     1.280   .     A
O65    C70     1.266   .     A
O66    C73     1.383   .     S
O67    C73     1.220   .     D
C68    O78     1.418   .     S
C68    O79     1.229   .     D
C68    C197    1.472   .     S
C69    C209    1.460   .     S
C70    C173    1.477   .     S
C71    O76     1.273   .     A
C71    O77     1.284   .     A
C71    C101    1.473   .     S
C72    O74     1.312   .     A
C72    O75     1.303   .     A
C72    C287    1.472   .     S
C73    C125    1.474   .     S
C80    C81     1.409   .     A
C80    N85     1.363   .     A
C80    C86     1.489   .     S
C81    C82     1.398   .     A
C81    H96     1.080   .     S
C82    C83     1.400   .     A
C82    H92     1.083   .     S
C83    C84     1.404   1_556 A
C83    C33     1.478   1_556 S
C84    H93     1.083   .     S
C84    C83     1.404   1_554 A
C84    N85     1.361   1_554 A
N85    C84     1.361   1_556 A
C86    N87     1.365   .     A
C86    C91     1.406   .     A
N87    C88     1.362   .     A
C88    C89     1.404   .     A
C88    H94     1.085   .     S
C89    C90     1.400   .     A
C90    C91     1.396   .     A
C90    H95     1.081   .     S
C91    H97     1.080   .     S
C98    C99     1.398   .     A
C98    N103    1.363   .     A
C98    C104    1.467   .     S
C99    C100    1.387   .     A
C99    H114    1.084   .     S
C100   C101    1.401   .     A
C100   H110    1.083   .     S
C101   C102    1.405   .     A
C102   N103    1.364   .     A
C102   H111    1.082   .     S
C104   N105    1.366   .     A
C104   C109    1.394   .     A
N105   C106    1.368   1_545 A
C106   C107    1.403   .     A
C106   H112    1.082   .     S
C106   N105    1.368   1_565 A
C107   C108    1.403   .     A
C108   H113    1.084   .     S
C108   C109    1.381   1_565 A
C109   H115    1.084   .     S
C109   C108    1.381   1_545 A
C116   C117    1.403   .     A
C116   N121    1.363   .     A
C116   C122    1.478   .     S
C117   C118    1.395   .     A
C117   H132    1.083   .     S
C118   C119    1.402   .     A
C118   H128    1.083   .     S
C119   C120    1.401   .     A
C120   N121    1.361   .     A
C120   H129    1.083   .     S
C122   N123    1.362   .     A
C122   C127    1.403   .     A
N123   C124    1.360   .     A
C124   C125    1.401   .     A
C124   H130    1.081   .     S
C125   C126    1.403   .     A
C126   C127    1.396   .     A
C126   H131    1.083   .     S
C127   H133    1.083   .     S
C134   C135    1.398   .     A
C134   N139    1.360   1_545 A
C134   C140    1.462   1_545 S
C135   C136    1.395   .     A
C135   H150    1.083   .     S
C136   C137    1.404   .     A
C136   H146    1.083   .     S
C137   C138    1.403   .     A
C138   H147    1.083   .     S
C138   N139    1.359   1_545 A
N139   C134    1.360   1_565 A
N139   C138    1.359   1_565 A
C140   N141    1.361   .     A
C140   C145    1.397   .     A
C140   C134    1.462   1_565 S
N141   C142    1.358   .     A
C142   C143    1.400   .     A
C142   H148    1.082   .     S
C143   C144    1.406   .     A
C144   C145    1.397   .     A
C144   H149    1.083   .     S
C145   H151    1.083   1_565 S
H151   C145    1.083   1_545 S
C152   N157    1.366   .     A
C152   C158    1.480   .     S
C152   C153    1.398   1_565 A
C153   C154    1.388   .     A
C153   H168    1.082   .     S
C153   C152    1.398   1_545 A
C154   C155    1.407   .     A
C154   H164    1.083   .     S
C155   C156    1.403   .     A
C156   H165    1.082   .     S
C156   N157    1.365   1_545 A
N157   C156    1.365   1_565 A
C158   N159    1.358   .     A
C158   C163    1.411   .     A
N159   C160    1.356   .     A
C160   C161    1.407   .     A
C160   H166    1.083   .     S
C161   C162    1.398   .     A
C162   C163    1.400   .     A
C162   H167    1.083   .     S
C163   H169    1.082   .     S
C170   C171    1.409   .     A
C170   N175    1.358   .     A
C170   C176    1.479   .     S
C171   C172    1.400   .     A
C171   H186    1.082   .     S
C172   C173    1.400   .     A
C172   H182    1.083   .     S
C173   C174    1.407   .     A
C174   N175    1.357   .     A
C174   H183    1.083   .     S
C176   N177    1.366   .     A
C176   C181    1.400   .     A
N177   C178    1.364   .     A
C178   C179    1.401   .     A
C178   H184    1.083   .     S
C179   C180    1.405   .     A
C180   C181    1.391   .     A
C180   H185    1.084   .     S
C181   H187    1.082   .     S
C188   C189    1.405   .     A
C188   N193    1.359   .     A
C188   C194    1.473   .     S
C189   C190    1.399   .     A
C189   H204    1.083   .     S
C190   C191    1.403   .     A
C190   H200    1.084   .     S
C191   C192    1.404   .     A
C191   C11     1.473   1_554 S
C192   N193    1.356   .     A
C192   H201    1.083   .     S
C194   N195    1.364   .     A
C194   C199    1.399   .     A
N195   C196    1.361   .     A
C196   C197    1.399   .     A
C196   H202    1.082   .     S
C197   C198    1.404   .     A
C198   C199    1.393   .     A
C198   H203    1.083   .     S
C199   H205    1.083   .     S
C206   C207    1.403   .     A
C206   N211    1.366   .     A
C206   C212    1.479   .     S
C207   C208    1.392   .     A
C207   H222    1.081   .     S
C208   C209    1.399   .     A
C208   H218    1.084   .     S
C209   C210    1.397   .     A
C210   N211    1.361   .     A
C210   H219    1.083   .     S
C212   N213    1.358   .     A
C212   C217    1.410   .     A
N213   C214    1.355   .     A
C214   C215    1.404   .     A
C214   H220    1.082   .     S
C215   C216    1.400   .     A
C215   C50     1.473   1_455 S
C216   C217    1.399   .     A
C216   H221    1.083   .     S
C217   H223    1.081   .     S
C224   N229    1.360   .     A
C224   C230    1.482   .     S
C224   C225    1.408   1_655 A
C225   H240    1.082   .     S
C225   C224    1.408   1_455 A
C225   C226    1.401   1_465 A
C226   C227    1.402   .     A
C226   C225    1.401   1_645 A
C226   H236    1.083   1_655 S
C227   C228    1.403   .     A
C228   H237    1.082   .     S
C228   N229    1.357   1_545 A
N229   C228    1.357   1_565 A
C230   N231    1.365   .     A
C230   C235    1.402   1_655 A
N231   C232    1.363   .     A
C232   H238    1.082   .     S
C232   C233    1.400   1_655 A
C233   C234    1.405   .     A
C233   C232    1.400   1_455 A
C234   C235    1.395   .     A
C234   H239    1.084   .     S
C235   H241    1.083   .     S
C235   C230    1.402   1_455 A
H236   C226    1.083   1_455 S
C242   N247    1.361   .     A
C242   C248    1.484   .     S
C242   C243    1.409   1_655 A
C243   C244    1.398   .     A
C243   H258    1.082   .     S
C243   C242    1.409   1_455 A
C244   C245    1.399   .     A
C244   H254    1.083   .     S
C245   C246    1.406   1_455 A
C246   N247    1.360   .     A
C246   H255    1.083   .     S
C246   C245    1.406   1_655 A
C248   N249    1.365   .     A
C248   C253    1.403   1_655 A
N249   C250    1.365   .     A
C250   C251    1.404   .     A
C250   H256    1.083   .     S
C251   C252    1.404   .     A
C252   C253    1.393   1_655 A
C252   H257    1.083   1_655 S
C253   H259    1.082   .     S
C253   C248    1.403   1_455 A
C253   C252    1.393   1_455 A
H257   C252    1.083   1_455 S
C260   C261    1.405   .     A
C260   C266    1.486   .     S
C260   N265    1.363   1_556 A
C261   C262    1.394   .     A
C261   H276    1.082   .     S
C262   H272    1.083   .     S
C262   C263    1.402   1_556 A
C263   C264    1.406   .     A
C263   C262    1.402   1_554 A
C264   N265    1.364   .     A
C264   H273    1.083   .     S
N265   C260    1.363   1_554 A
C266   C271    1.404   .     A
C266   N267    1.363   1_556 A
N267   C266    1.363   1_554 A
N267   C268    1.365   1_554 A
C268   C269    1.408   .     A
C268   N267    1.365   1_556 A
C268   H274    1.082   1_656 S
C269   C270    1.403   .     A
C269   C9      1.487   1_655 S
C270   C271    1.392   .     A
C270   H275    1.083   .     S
C271   H277    1.082   .     S
H274   C268    1.082   1_454 S
C278   C279    1.405   .     A
C278   N283    1.361   .     A
C278   C284    1.476   .     S
C279   C280    1.397   .     A
C279   H294    1.082   .     S
C280   C281    1.402   .     A
C280   H290    1.083   .     S
C281   C282    1.402   .     A
C282   N283    1.358   .     A
C282   H291    1.083   .     S
C284   N285    1.363   .     A
C284   C289    1.403   .     A
N285   C286    1.359   .     A
C286   C287    1.401   .     A
C286   H292    1.083   .     S
C287   C288    1.403   .     A
C288   C289    1.394   .     A
C288   H293    1.083   .     S
C289   H295    1.082   .     S
