data_lcy+N394+E220
_audit_creation_date              2025-01-21
_audit_creation_method            'Materials Studio'
_symmetry_space_group_name_H-M    'P1'
_symmetry_Int_Tables_number       1
_symmetry_cell_setting            triclinic
loop_
_symmetry_equiv_pos_as_xyz
  x,y,z
_cell_length_a                    19.2438
_cell_length_b                    18.4339
_cell_length_c                    20.1937
_cell_angle_alpha                 96.5091
_cell_angle_beta                  101.1328
_cell_angle_gamma                 89.4105
loop_
_atom_site_label
_atom_site_type_symbol
_atom_site_fract_x
_atom_site_fract_y
_atom_site_fract_z
_atom_site_U_iso_or_equiv
_atom_site_adp_type
_atom_site_occupancy
Pr0    Pr    0.07066   0.69414   0.87190   0.00000  Uiso   1.00
Pr1    Pr    0.13763   0.59191   0.97686   0.00000  Uiso   1.00
O2     O     0.05010   0.64593   0.03115   0.00000  Uiso   1.00
O3     O     0.01054   0.72836   0.95696   0.00000  Uiso   1.00
O4     O     0.99742   0.75353   0.79210   0.00000  Uiso   1.00
O5     O     0.08979   0.81021   0.84874   0.00000  Uiso   1.00
O6     O     0.17416   0.68513   0.93613   0.00000  Uiso   1.00
O7     O     0.15202   0.79266   0.91243   0.00000  Uiso   1.00
C8     C     0.06767   0.50968   0.86404   0.00000  Uiso   1.00
C9     C     0.00355   0.69219   1.00646   0.00000  Uiso   1.00
C10    C     1.03475   0.81211   0.80274   0.00000  Uiso   1.00
C11    C     0.20230   0.51918   0.07926   0.00000  Uiso   1.00
C12    C     0.19177   0.59728   0.82468   0.00000  Uiso   1.00
C13    C     0.19720   0.75560   0.94362   0.00000  Uiso   1.00
O14    O     0.14217   0.64264   0.80633   0.00000  Uiso   1.00
O15    O     0.20302   0.57099   0.88452   0.00000  Uiso   1.00
O16    O     0.22813   0.57682   0.06350   0.00000  Uiso   1.00
O17    O     0.14477   0.49602   0.03950   0.00000  Uiso   1.00
O18    O     0.03991   0.57526   0.89024   0.00000  Uiso   1.00
O19    O     0.12907   0.50174   0.89065   0.00000  Uiso   1.00
Pr20   Pr    0.62853   0.88702   0.06900   0.00000  Uiso   1.00
Pr21   Pr    0.59952   0.78448   0.15869   0.00000  Uiso   1.00
O22    O     0.69456   0.72362   0.11944   0.00000  Uiso   1.00
O23    O     0.70404   0.79988   0.04044   0.00000  Uiso   1.00
O24    O     0.68105   0.97913   0.02896   0.00000  Uiso   1.00
O25    O     0.60045   0.91285   0.96068   0.00000  Uiso   1.00
O26    O     0.55278   0.78999   0.05017   0.00000  Uiso   1.00
O27    O     0.52332   0.87898   0.99094   0.00000  Uiso   1.00
C28    C     0.69204   0.86296   0.25137   0.00000  Uiso   1.00
C29    C     0.72638   0.74575   0.07370   0.00000  Uiso   1.00
C30    C     0.64772   0.96227   0.96803   0.00000  Uiso   1.00
C31    C     0.57521   0.68532   0.24035   0.00000  Uiso   1.00
C32    C     0.52218   0.94274   0.16517   0.00000  Uiso   1.00
C33    C     0.49929   0.82690   1.01135   0.00000  Uiso   1.00
O34    O     0.55302   0.95801   0.11727   0.00000  Uiso   1.00
O35    O     0.52315   0.87814   0.18609   0.00000  Uiso   1.00
O36    O     0.54323   0.68447   0.17862   0.00000  Uiso   1.00
O37    O     0.61865   0.73893   0.26131   0.00000  Uiso   1.00
O38    O     0.67648   0.87965   0.18290   0.00000  Uiso   1.00
O39    O     0.66498   0.80657   0.26198   0.00000  Uiso   1.00
Pr40   Pr    0.91204   0.16948   0.56891   0.00000  Uiso   1.00
Pr41   Pr    0.81375   0.11585   0.65838   0.00000  Uiso   1.00
O42    O     0.88903   0.19643   0.73943   0.00000  Uiso   1.00
O43    O     0.95979   0.23315   0.66982   0.00000  Uiso   1.00
O44    O     0.97053   0.24657   0.51820   0.00000  Uiso   1.00
O45    O     0.00846   0.13703   0.52658   0.00000  Uiso   1.00
O46    O     0.89825   0.06571   0.61129   0.00000  Uiso   1.00
O47    O     0.99514   0.11661   0.65275   0.00000  Uiso   1.00
C48    C     0.75399   0.21602   0.55193   0.00000  Uiso   1.00
C49    C     0.93747   0.23907   0.72641   0.00000  Uiso   1.00
C50    C     0.01870   0.19995   0.51089   0.00000  Uiso   1.00
C51    C     0.74661   0.06214   0.74370   0.00000  Uiso   1.00
C52    C     0.78773   0.05449   0.49481   0.00000  Uiso   1.00
C53    C     0.96117   0.06250   0.65345   0.00000  Uiso   1.00
O54    O     0.84052   0.09426   0.48763   0.00000  Uiso   1.00
O55    O     0.76559   0.05135   0.55225   0.00000  Uiso   1.00
O56    O     0.80015   0.02956   0.72421   0.00000  Uiso   1.00
O57    O     0.72627   0.12154   0.71751   0.00000  Uiso   1.00
O58    O     0.81158   0.21551   0.60482   0.00000  Uiso   1.00
O59    O     0.80442   0.21460   0.59844   0.00000  Uiso   1.00
Pr60   Pr    0.37968   0.43846   0.49830   0.00000  Uiso   1.00
Pr61   Pr    0.41536   0.31587   0.40147   0.00000  Uiso   1.00
O62    O     0.32586   0.25974   0.43728   0.00000  Uiso   1.00
O63    O     0.29568   0.35686   0.50622   0.00000  Uiso   1.00
O64    O     0.32541   0.53531   0.54848   0.00000  Uiso   1.00
O65    O     0.39785   0.47283   0.61210   0.00000  Uiso   1.00
O66    O     0.45995   0.35014   0.50949   0.00000  Uiso   1.00
O67    O     0.50057   0.46124   0.51968   0.00000  Uiso   1.00
C68    C     0.32304   0.37826   0.31371   0.00000  Uiso   1.00
C69    C     0.28634   0.29096   0.47673   0.00000  Uiso   1.00
C70    C     0.34959   0.52021   0.60900   0.00000  Uiso   1.00
C71    C     0.44213   0.19782   0.32170   0.00000  Uiso   1.00
C72    C     0.48500   0.47258   0.39352   0.00000  Uiso   1.00
C73    C     0.51714   0.39718   0.51930   0.00000  Uiso   1.00
O74    O     0.45677   0.49989   0.44525   0.00000  Uiso   1.00
O75    O     0.48523   0.40311   0.37237   0.00000  Uiso   1.00
O76    O     0.47554   0.21241   0.38273   0.00000  Uiso   1.00
O77    O     0.39702   0.24544   0.29970   0.00000  Uiso   1.00
O78    O     0.34296   0.40909   0.38223   0.00000  Uiso   1.00
O79    O     0.34652   0.31748   0.29937   0.00000  Uiso   1.00
C80    C     0.42226   0.80658   0.99384   0.00000  Uiso   1.00
C81    C     0.39763   0.73329   0.98299   0.00000  Uiso   1.00
C82    C     0.32403   0.71887   0.97186   0.00000  Uiso   1.00
C83    C     0.27380   0.77543   0.96751   0.00000  Uiso   1.00
C84    C     0.29864   0.84772  -0.02323   0.00000  Uiso   1.00
C85    C     0.37184   0.86296  -0.00955   0.00000  Uiso   1.00
O86    O     0.42951   0.60923   0.99152   0.00000  Uiso   1.00
O87    O     0.49919   0.67946   0.94768   0.00000  Uiso   1.00
N88    N     0.44553   0.67337   0.97735   0.00000  Uiso   1.00
H89    H     0.26161   0.89241  -0.02714   0.00000  Uiso   1.00
H90    H     0.38929   0.91949  -0.00141   0.00000  Uiso   1.00
H91    H     0.30584   0.66256   0.96196   0.00000  Uiso   1.00
C92    C     0.45593   0.13161   0.27958   0.00000  Uiso   1.00
C93    C     0.42869   0.06239   0.28640   0.00000  Uiso   1.00
C94    C     0.44717  -0.00005   0.24673   0.00000  Uiso   1.00
C95    C     0.49185   1.00653   0.20049   0.00000  Uiso   1.00
C96    C     0.51548   0.07677   0.19253   0.00000  Uiso   1.00
C97    C     0.49800   0.13825   0.23182   0.00000  Uiso   1.00
O98    O     0.32187   0.01987   0.31101   0.00000  Uiso   1.00
O99    O     0.39893   0.08192   0.39564   0.00000  Uiso   1.00
N100   N     0.38166   0.05503   0.33225   0.00000  Uiso   1.00
H101   H     0.55047   0.08461   0.15777   0.00000  Uiso   1.00
H102   H     0.51882   0.19115   0.22612   0.00000  Uiso   1.00
H103   H     0.42826   0.94658   0.25324   0.00000  Uiso   1.00
C104   C     0.70633   0.27821   0.54887   0.00000  Uiso   1.00
C105   C     0.66608   0.29262   0.60022   0.00000  Uiso   1.00
C106   C     0.60809   0.33781   0.59071   0.00000  Uiso   1.00
C107   C     0.58921   0.37075   0.53176   0.00000  Uiso   1.00
C108   C     0.63133   0.36101   0.48155   0.00000  Uiso   1.00
C109   C     0.68934   0.31342   0.48974   0.00000  Uiso   1.00
O110   O     0.73418   0.27664   0.70675   0.00000  Uiso   1.00
O111   O     0.62686   0.22345   0.67701   0.00000  Uiso   1.00
N112   N     0.67913   0.25669   0.66026   0.00000  Uiso   1.00
H113   H     0.61717   0.38574   0.43450   0.00000  Uiso   1.00
H114   H     0.71877   0.30150   0.44898   0.00000  Uiso   1.00
H115   H     0.57449   0.34332   0.62818   0.00000  Uiso   1.00
C116   C     0.71315   0.03490   0.79600   0.00000  Uiso   1.00
C117   C     0.70899   0.95936   0.80221   0.00000  Uiso   1.00
C118   C     0.68565   0.93744   0.85852   0.00000  Uiso   1.00
C119   C     0.66780   0.98898   0.90888   0.00000  Uiso   1.00
C120   C     0.67086   0.06333   0.90222   0.00000  Uiso   1.00
C121   C     0.69212   0.08603   0.84539   0.00000  Uiso   1.00
O122   O     0.75534   0.84350   0.76994   0.00000  Uiso   1.00
O123   O     0.70851   0.91163   0.68761   0.00000  Uiso   1.00
N124   N     0.72728   0.90455   0.75201   0.00000  Uiso   1.00
H125   H     0.65707   0.10352   0.94090   0.00000  Uiso   1.00
H126   H     0.69532   0.14396   0.84156   0.00000  Uiso   1.00
H127   H     0.68256   0.87972   0.86378   0.00000  Uiso   1.00
C128   C     0.75556   1.00717   0.43294   0.00000  Uiso   1.00
C129   C     0.73390   0.03601   0.36981   0.00000  Uiso   1.00
C130   C     0.72012  -0.01168   0.30913   0.00000  Uiso   1.00
C131   C     0.72663   0.91295   0.31032   0.00000  Uiso   1.00
C132   C     0.74960   0.88525   0.37288   0.00000  Uiso   1.00
C133   C     0.76331   0.93178   0.43337   0.00000  Uiso   1.00
O134   O     0.72923   0.14241   0.31304   0.00000  Uiso   1.00
O135   O     0.69225   0.14996   0.41213   0.00000  Uiso   1.00
N136   N     0.72209   0.11274   0.36694   0.00000  Uiso   1.00
H137   H     0.75562   0.82708   0.37509   0.00000  Uiso   1.00
H138   H     0.78265   0.90892   0.48036   0.00000  Uiso   1.00
H139   H     0.69945   0.00981   0.26154   0.00000  Uiso   1.00
C140   C     0.31672   0.54586   0.66864   0.00000  Uiso   1.00
C141   C     0.33858   0.52131   0.73400   0.00000  Uiso   1.00
C142   C     0.29829   0.53791   0.78512   0.00000  Uiso   1.00
C143   C     0.23569   0.57730   0.77230   0.00000  Uiso   1.00
C144   C     0.21475   0.60150   0.70747   0.00000  Uiso   1.00
C145   C     0.25469   0.58665   0.65708   0.00000  Uiso   1.00
O146   O     0.45099   0.49990   0.79810   0.00000  Uiso   1.00
O147   O     0.39349   0.40693   0.72887   0.00000  Uiso   1.00
N148   N     0.39934   0.47655   0.74887   0.00000  Uiso   1.00
H149   H     0.16650   0.63200   0.69461   0.00000  Uiso   1.00
H150   H     0.23506   0.60510   0.60785   0.00000  Uiso   1.00
H151   H     0.31541   0.51875   0.83437   0.00000  Uiso   1.00
C152   C     0.23421   0.48416   0.14053   0.00000  Uiso   1.00
C153   C     0.28783   0.51922   0.19236   0.00000  Uiso   1.00
C154   C     0.31125   0.48683   0.25213   0.00000  Uiso   1.00
C155   C     0.28549   0.41833   0.25962   0.00000  Uiso   1.00
C156   C     0.23402   0.38282   0.20809   0.00000  Uiso   1.00
C157   C     0.20709   0.41631   0.15002   0.00000  Uiso   1.00
O158   O     0.32784   0.63973   0.23296   0.00000  Uiso   1.00
O159   O     0.36033   0.58600   0.13862   0.00000  Uiso   1.00
N160   N     0.32131   0.58589   0.18452   0.00000  Uiso   1.00
H161   H     0.21537   0.32867   0.21268   0.00000  Uiso   1.00
H162   H     0.16553   0.38846   0.11209   0.00000  Uiso   1.00
H163   H     0.35381   0.51257   0.29047   0.00000  Uiso   1.00
C164   C     0.22508   0.25188   0.48839   0.00000  Uiso   1.00
C165   C     0.20499   0.26514   0.55225   0.00000  Uiso   1.00
C166   C     0.13530   0.25078   0.55676   0.00000  Uiso   1.00
C167   C     0.08742   0.21961   0.49993   0.00000  Uiso   1.00
C168   C     0.10988   0.19706   0.43921   0.00000  Uiso   1.00
C169   C     0.17851   0.21468   0.43285   0.00000  Uiso   1.00
O170   O     0.23345   0.32729   0.66420   0.00000  Uiso   1.00
O171   O     0.32167   0.27531   0.61861   0.00000  Uiso   1.00
N172   N     0.25510   0.29242   0.61240   0.00000  Uiso   1.00
H173   H     0.07408   0.16764   0.39679   0.00000  Uiso   1.00
H174   H     0.19383   0.20254   0.38390   0.00000  Uiso   1.00
H175   H     0.11892   0.26155   0.60534   0.00000  Uiso   1.00
C176   C     0.98364  -0.00211   0.69018   0.00000  Uiso   1.00
C177   C     0.94737   0.92995   0.66899   0.00000  Uiso   1.00
C178   C     0.96298   0.87115   0.70754   0.00000  Uiso   1.00
C179   C     1.01695   0.87650   0.76503   0.00000  Uiso   1.00
C180   C     0.05498   0.94285   0.78468   0.00000  Uiso   1.00
C181   C     0.03803   1.00319   0.74798   0.00000  Uiso   1.00
O182   O     0.91621   0.92915   0.54983   0.00000  Uiso   1.00
O183   O     0.83809  -0.11656   0.60407   0.00000  Uiso   1.00
N184   N     0.89715   0.91817   0.60635   0.00000  Uiso   1.00
H185   H     0.09710   0.94834   0.82907   0.00000  Uiso   1.00
H186   H     0.06647   0.05431   0.76547   0.00000  Uiso   1.00
H187   H     0.93462   0.81983   0.69071   0.00000  Uiso   1.00
C188   C     0.02811   0.44393   0.82520   0.00000  Uiso   1.00
C189   C     0.95473   0.43029   0.82084   0.00000  Uiso   1.00
C190   C     0.92563   0.36010   0.79430   0.00000  Uiso   1.00
C191   C     0.96857   0.30270   0.77400   0.00000  Uiso   1.00
C192   C     0.04083   0.31690   0.77929   0.00000  Uiso   1.00
C193   C     0.06961   0.38608   0.80306   0.00000  Uiso   1.00
O194   O     0.84896   0.49780   0.80244   0.00000  Uiso   1.00
O195   O     0.91983   0.51525   0.90508   0.00000  Uiso   1.00
N196   N     0.90889   0.48629   0.84216   0.00000  Uiso   1.00
H197   H     0.07483   0.27472   0.76167   0.00000  Uiso   1.00
H198   H     0.12581   0.39389   0.80536   0.00000  Uiso   1.00
H199   H     0.86899   0.35123   0.78737   0.00000  Uiso   1.00
C200   C     0.79440   0.71395   0.05831   0.00000  Uiso   1.00
C201   C     0.85233   0.69354   0.10803   0.00000  Uiso   1.00
C202   C     0.92078   0.68425   0.09146   0.00000  Uiso   1.00
C203   C     0.93321   0.69889   1.02779   0.00000  Uiso   1.00
C204   C     0.87469   0.71491   0.97854   0.00000  Uiso   1.00
C205   C     0.80702   0.72084   0.99301   0.00000  Uiso   1.00
O206   O     0.87540   0.63247   0.20670   0.00000  Uiso   1.00
O207   O     0.81845   0.73903   0.21159   0.00000  Uiso   1.00
N208   N     0.84437   0.68591   0.17605   0.00000  Uiso   1.00
H209   H     0.88110   0.72329   0.92778   0.00000  Uiso   1.00
H210   H     0.76457   0.73578   0.95341   0.00000  Uiso   1.00
H211   H     0.96474   0.66935   0.12947   0.00000  Uiso   1.00
C212   C     0.56223   0.62824   0.28272   0.00000  Uiso   1.00
C213   C     0.57867   0.63777   0.35478   0.00000  Uiso   1.00
C214   C     0.55343   0.58650   0.39120   0.00000  Uiso   1.00
C215   C     0.51769   0.52316   0.35707   0.00000  Uiso   1.00
C216   C     0.50723   0.51099   0.28616   0.00000  Uiso   1.00
C217   C     0.52779   0.56361   0.24944   0.00000  Uiso   1.00
O218   O     0.60102   0.73447   0.44387   0.00000  Uiso   1.00
O219   O     0.68593   0.70490   0.38412   0.00000  Uiso   1.00
N220   N     0.62078   0.69821   0.39168   0.00000  Uiso   1.00
H221   H     0.47950   0.46244   0.25882   0.00000  Uiso   1.00
H222   H     0.51547   0.55422   0.19449   0.00000  Uiso   1.00
H223   H     0.56260   0.59550   0.44620   0.00000  Uiso   1.00
loop_
_geom_bond_atom_site_label_1
_geom_bond_atom_site_label_2
_geom_bond_distance
_geom_bond_site_symmetry_2
_ccdc_geom_bond_type
Pr0    O3      2.279   .     S
Pr0    O5      2.290   .     S
Pr0    O6      2.173   .     S
Pr0    O7      2.376   .     S
Pr0    O14     2.223   .     S
Pr0    O18     2.363   .     S
Pr0    O4      2.296   1_455 S
Pr1    O6      2.166   .     S
Pr1    O15     2.438   .     S
Pr1    O18     2.304   .     S
Pr1    O19     2.249   .     S
Pr1    O2      2.337   1_556 S
Pr1    O16     2.257   1_556 S
Pr1    O17     2.276   1_556 S
O2     Pr1     2.337   1_554 S
O2     C9      1.299   1_554 A
O3     C9      1.291   .     A
O4     C10     1.278   .     A
O4     Pr0     2.296   1_655 S
O5     C10     1.270   1_455 A
O6     C13     1.360   .     S
O7     C13     1.222   .     D
C8     O18     1.406   .     S
C8     O19     1.215   .     D
C8     C188    1.496   .     S
C9     O2      1.299   1_556 A
C9     C203    1.497   1_455 S
C10    C179    1.484   .     S
C10    O5      1.270   1_655 A
C11    O16     1.275   .     A
C11    O17     1.281   .     A
C11    C152    1.485   .     S
C12    O14     1.290   .     A
C12    O15     1.331   .     A
C12    C143    1.490   .     S
C13    C83     1.495   .     S
O16    Pr1     2.257   1_554 S
O17    Pr1     2.276   1_554 S
Pr20   O23     2.256   .     S
Pr20   O24     2.285   .     S
Pr20   O26     2.270   .     S
Pr20   O34     2.234   .     S
Pr20   O38     2.326   .     S
Pr20   O25     2.254   1_554 S
Pr20   O27     2.308   1_554 S
Pr21   O22     2.355   .     S
Pr21   O26     2.216   .     S
Pr21   O35     2.343   .     S
Pr21   O36     2.261   .     S
Pr21   O37     2.287   .     S
Pr21   O38     2.256   .     S
Pr21   O39     2.215   .     S
O22    C29     1.305   .     A
O23    C29     1.290   .     A
O24    C30     1.278   1_554 A
O25    C30     1.270   .     A
O25    Pr20    2.254   1_556 S
O26    C33     1.390   1_554 S
O27    C33     1.216   .     D
O27    Pr20    2.308   1_556 S
C28    O38     1.425   .     S
C28    O39     1.226   .     D
C28    C131    1.472   .     S
C29    C200    1.501   .     S
C30    C119    1.461   .     S
C30    O24     1.278   1_556 A
C31    O36     1.278   .     A
C31    O37     1.281   .     A
C31    C212    1.481   .     S
C32    O34     1.286   .     A
C32    O35     1.307   .     A
C32    C95     1.479   .     S
C33    C80     1.497   .     S
C33    O26     1.390   1_556 S
Pr40   O43     2.265   .     S
Pr40   O44     2.268   .     S
Pr40   O46     2.220   .     S
Pr40   O47     2.381   .     S
Pr40   O54     2.272   .     S
Pr40   O58     2.313   .     S
Pr40   O45     2.237   1_655 S
Pr41   O42     2.358   .     S
Pr41   O46     2.184   .     S
Pr41   O55     2.355   .     S
Pr41   O56     2.233   .     S
Pr41   O57     2.239   .     S
Pr41   O58     2.231   .     S
Pr41   O59     2.285   .     S
O42    C49     1.309   .     A
O43    C49     1.289   .     A
O44    C50     1.276   1_655 A
O45    C50     1.264   .     A
O45    Pr40    2.237   1_455 S
O46    C53     1.344   .     S
O47    C53     1.201   .     D
C48    O58     1.383   .     S
C48    O59     1.216   .     D
C48    C104    1.460   .     S
C49    C191    1.481   .     S
C50    C167    1.439   .     S
C50    O44     1.276   1_455 A
C51    O56     1.291   .     A
C51    O57     1.294   .     A
C51    C116    1.474   .     S
C52    O54     1.299   .     A
C52    O55     1.318   .     A
C52    C128    1.473   1_545 S
C53    C176    1.490   .     S
Pr60   O63     2.260   .     S
Pr60   O64     2.295   .     S
Pr60   O65     2.274   .     S
Pr60   O66     2.233   .     S
Pr60   O67     2.317   .     S
Pr60   O74     2.357   .     S
Pr60   O78     2.317   .     S
Pr61   O62     2.291   .     S
Pr61   O66     2.207   .     S
Pr61   O75     2.303   .     S
Pr61   O76     2.254   .     S
Pr61   O77     2.271   .     S
Pr61   O78     2.222   .     S
Pr61   O79     2.228   .     S
O62    C69     1.290   .     A
O63    C69     1.289   .     A
O64    C70     1.282   .     A
O65    C70     1.266   .     A
O66    C73     1.378   .     S
O67    C73     1.220   .     D
C68    O78     1.416   .     S
C68    O79     1.229   .     D
C68    C155    1.459   .     S
C69    C164    1.459   .     S
C70    C140    1.494   .     S
C71    O76     1.276   .     A
C71    O77     1.283   .     A
C71    C92     1.459   .     S
C72    O74     1.317   .     A
C72    O75     1.304   .     A
C72    C215    1.468   .     S
C73    C107    1.450   .     S
C80    C81     1.415   .     A
C80    C85     1.413   1_556 A
C81    C82     1.414   .     A
C81    N88     1.440   .     S
C82    C83     1.413   .     A
C82    H91     1.083   .     S
C83    C84     1.400   1_556 A
C84    C85     1.407   .     A
C84    H89     1.083   .     S
C84    C83     1.400   1_554 A
C85    H90     1.083   .     S
C85    C80     1.413   1_554 A
O86    N88     1.301   .     A
O87    N88     1.301   .     A
C92    C93     1.415   .     A
C92    C97     1.390   .     A
C93    C94     1.409   .     A
C93    N100    1.432   .     S
C94    C95     1.401   1_545 A
C94    H103    1.083   1_545 S
C95    C94     1.401   1_565 A
C95    C96     1.413   1_565 A
C96    C97     1.385   .     A
C96    H101    1.084   .     S
C96    C95     1.413   1_545 A
C97    H102    1.084   .     S
O98    N100    1.300   .     A
O99    N100    1.300   .     A
H103   C94     1.083   1_565 S
C104   C105    1.410   .     A
C104   C109    1.405   .     A
C105   C106    1.382   .     A
C105   N112    1.426   .     S
C106   C107    1.382   .     A
C106   H115    1.082   .     S
C107   C108    1.411   .     A
C108   C109    1.409   .     A
C108   H113    1.086   .     S
C109   H114    1.088   .     S
O110   N112    1.298   .     A
O111   N112    1.301   .     A
C116   C121    1.408   .     A
C116   C117    1.417   1_545 A
C117   C118    1.401   .     A
C117   N124    1.439   .     S
C117   C116    1.417   1_565 A
C118   C119    1.401   .     A
C118   H127    1.085   .     S
C119   C120    1.395   1_565 A
C120   C121    1.398   .     A
C120   H125    1.084   .     S
C120   C119    1.395   1_545 A
C121   H126    1.083   .     S
O122   N124    1.301   .     A
O123   N124    1.302   .     A
C128   C133    1.397   .     A
C128   C129    1.423   1_565 A
C128   C52     1.473   1_565 S
C129   C130    1.407   .     A
C129   N136    1.436   .     S
C129   C128    1.423   1_545 A
C130   H139    1.084   .     S
C130   C131    1.396   1_545 A
C131   C132    1.407   .     A
C131   C130    1.396   1_565 A
C132   C133    1.393   .     A
C132   H137    1.082   .     S
C133   H138    1.081   .     S
O134   N136    1.303   .     A
O135   N136    1.298   .     A
C140   C141    1.429   .     A
C140   C145    1.399   .     A
C141   C142    1.412   .     A
C141   N148    1.428   .     S
C142   C143    1.396   .     A
C142   H151    1.083   .     S
C143   C144    1.414   .     A
C144   C145    1.391   .     A
C144   H149    1.084   .     S
C145   H150    1.084   .     S
O146   N148    1.301   .     A
O147   N148    1.300   .     A
C152   C153    1.422   .     A
C152   C157    1.407   .     A
C153   C154    1.401   .     A
C153   N160    1.432   .     S
C154   C155    1.396   .     A
C154   H163    1.084   .     S
C155   C156    1.398   .     A
C156   C157    1.396   .     A
C156   H161    1.084   .     S
C157   H162    1.083   .     S
O158   N160    1.301   .     A
O159   N160    1.301   .     A
C164   C165    1.411   .     A
C164   C169    1.407   .     A
C165   C166    1.392   .     A
C165   N172    1.441   .     S
C166   C167    1.396   .     A
C166   H175    1.084   .     S
C167   C168    1.396   .     A
C168   C169    1.396   .     A
C168   H173    1.085   .     S
C169   H174    1.084   .     S
O170   N172    1.301   .     A
O171   N172    1.302   .     A
C176   C177    1.421   1_545 A
C176   C181    1.404   1_645 A
C177   C178    1.402   .     A
C177   N184    1.432   .     S
C177   C176    1.421   1_565 A
C178   C179    1.395   .     A
C178   H187    1.084   .     S
C179   C180    1.409   1_655 A
C180   C181    1.407   .     A
C180   H185    1.082   .     S
C180   C179    1.409   1_455 A
C181   C176    1.404   1_465 A
C181   H186    1.083   1_565 S
O182   N184    1.301   .     A
O183   N184    1.301   1_545 A
N184   O183    1.301   1_565 A
H186   C181    1.083   1_545 S
C188   C193    1.410   .     A
C188   C189    1.421   1_455 A
C189   C190    1.420   .     A
C189   N196    1.434   .     S
C189   C188    1.421   1_655 A
C190   C191    1.409   .     A
C190   H199    1.084   .     S
C191   C192    1.399   1_655 A
C192   C193    1.391   .     A
C192   H197    1.084   .     S
C192   C191    1.399   1_455 A
C193   H198    1.084   .     S
O194   N196    1.302   .     A
O195   N196    1.300   .     A
C200   C201    1.427   .     A
C200   C205    1.406   1_554 A
C201   C202    1.424   .     A
C201   N208    1.434   .     S
C202   H211    1.083   .     S
C202   C203    1.408   1_554 A
C203   C204    1.404   .     A
C203   C202    1.408   1_556 A
C203   C9      1.497   1_655 S
C204   C205    1.389   .     A
C204   H209    1.084   .     S
C205   H210    1.084   .     S
C205   C200    1.406   1_556 A
O206   N208    1.301   .     A
O207   N208    1.301   .     A
C212   C213    1.419   .     A
C212   C217    1.405   .     A
C213   C214    1.405   .     A
C213   N220    1.432   .     S
C214   C215    1.401   .     A
C214   H223    1.084   .     S
C215   C216    1.399   .     A
C216   C217    1.390   .     A
C216   H221    1.084   .     S
C217   H222    1.083   .     S
O218   N220    1.301   .     A
O219   N220    1.301   .     A
