data_lcy+N106+E183
_audit_creation_date              2025-01-21
_audit_creation_method            'Materials Studio'
_symmetry_space_group_name_H-M    'P1'
_symmetry_Int_Tables_number       1
_symmetry_cell_setting            triclinic
loop_
_symmetry_equiv_pos_as_xyz
  x,y,z
_cell_length_a                    21.2540
_cell_length_b                    22.6692
_cell_length_c                    21.3378
_cell_angle_alpha                 100.8980
_cell_angle_beta                  95.5350
_cell_angle_gamma                 90.6661
loop_
_atom_site_label
_atom_site_type_symbol
_atom_site_fract_x
_atom_site_fract_y
_atom_site_fract_z
_atom_site_U_iso_or_equiv
_atom_site_adp_type
_atom_site_occupancy
Y0     Y     0.07398   0.61954   0.78521   0.00000  Uiso   1.00
Y1     Y     0.11579   0.55811   0.90401   0.00000  Uiso   1.00
O2     O     0.11750   0.53611   0.74038   0.00000  Uiso   1.00
O3     O     0.04780   0.53071   0.81421   0.00000  Uiso   1.00
C4     C     0.17263   0.54079   1.01826   0.00000  Uiso   1.00
O5     O     0.05887   0.47193   0.88251   0.00000  Uiso   1.00
O6     O     0.09102   0.68795   0.72425   0.00000  Uiso   1.00
O7     O    -0.00169   0.65446   0.71972   0.00000  Uiso   1.00
O8     O     0.18401   0.53100   0.82781   0.00000  Uiso   1.00
O9     O     0.11961   0.65305   0.88559   0.00000  Uiso   1.00
O10    O     0.17565   0.65492   0.80891   0.00000  Uiso   1.00
O11    O    -0.00126   0.64673   0.84922   0.00000  Uiso   1.00
C12    C     0.16963   0.52011   0.76648   0.00000  Uiso   1.00
O13    O     0.02797   0.60626   0.93593   0.00000  Uiso   1.00
C14    C     0.03174   0.47697   0.83122   0.00000  Uiso   1.00
O15    O     0.13168   0.50536   0.98389   0.00000  Uiso   1.00
O16    O     0.18398   0.58556   0.99410   0.00000  Uiso   1.00
C17    C     0.03394   0.69319   0.70449   0.00000  Uiso   1.00
C18    C    -0.00973   0.63669   0.90465   0.00000  Uiso   1.00
C19    C     0.17612   0.66803   0.86596   0.00000  Uiso   1.00
Y20    Y     0.60150   0.83526   0.06840   0.00000  Uiso   1.00
Y21    Y     0.52365   0.93659   0.14733   0.00000  Uiso   1.00
O22    O     0.57122   0.78551   0.14032   0.00000  Uiso   1.00
O23    O     0.49891   0.84207   0.09417   0.00000  Uiso   1.00
C24    C     0.51030   1.03261   0.23884   0.00000  Uiso   1.00
O25    O     0.43459   0.91236   0.07960   0.00000  Uiso   1.00
O26    O     0.68243   0.82754   0.00903   0.00000  Uiso   1.00
O27    O     0.63509   0.74652   0.01568   0.00000  Uiso   1.00
O28    O     0.54962   0.86776   0.21219   0.00000  Uiso   1.00
O29    O     0.62573   0.92791   0.12969   0.00000  Uiso   1.00
O30    O     0.67656   0.85343   0.15292   0.00000  Uiso   1.00
O31    O     0.55616   0.88294  -0.00476   0.00000  Uiso   1.00
C32    C     0.56258   0.81138   0.19759   0.00000  Uiso   1.00
O33    O     0.55311   0.97208   0.06035   0.00000  Uiso   1.00
C34    C     0.44499   0.85965   0.06223   0.00000  Uiso   1.00
O35    O     0.49881   0.97987   0.24645   0.00000  Uiso   1.00
O36    O     0.51712   0.03694   0.18194   0.00000  Uiso   1.00
C37    C     0.68174   0.77093  -0.00394   0.00000  Uiso   1.00
C38    C     0.55630   0.94002   0.00416   0.00000  Uiso   1.00
C39    C     0.66721   0.90566   0.17254   0.00000  Uiso   1.00
Y40    Y     0.78959   0.07661   0.65958   0.00000  Uiso   1.00
Y41    Y     0.89996   0.11393   0.58479   0.00000  Uiso   1.00
O42    O     0.73985   0.13145   0.59660   0.00000  Uiso   1.00
O43    O     0.80158   0.07294   0.55181   0.00000  Uiso   1.00
C44    C     1.00253   0.16007   0.54207   0.00000  Uiso   1.00
O45    O     0.88209   0.02863   0.51255   0.00000  Uiso   1.00
O46    O     0.73854   0.09197   0.74832   0.00000  Uiso   1.00
O47    O     0.71144   0.01468   0.68002   0.00000  Uiso   1.00
O48    O     0.82450   0.18852   0.58796   0.00000  Uiso   1.00
O49    O     0.88688   0.12210   0.68874   0.00000  Uiso   1.00
O50    O     0.80679   0.16906   0.72178   0.00000  Uiso   1.00
O51    O     0.84968  -0.00360   0.65186   0.00000  Uiso   1.00
C52    C     0.76374   0.18089   0.58839   0.00000  Uiso   1.00
O53    O     0.93896   0.03212   0.62231   0.00000  Uiso   1.00
C54    C     0.82481   0.02715   0.50813   0.00000  Uiso   1.00
O55    O     0.95050   0.14690   0.50819   0.00000  Uiso   1.00
O56    O     1.00036   0.15243   0.59874   0.00000  Uiso   1.00
C57    C     0.70352   0.04542   0.73455   0.00000  Uiso   1.00
C58    C     0.90680  -0.00991   0.63868   0.00000  Uiso   1.00
C59    C     0.86285   0.17500   0.71861   0.00000  Uiso   1.00
Y60    Y     0.47376   0.48687   0.42285   0.00000  Uiso   1.00
Y61    Y     0.37635   0.37919   0.41829   0.00000  Uiso   1.00
O62    O     0.53190   0.43556   0.48618   0.00000  Uiso   1.00
O63    O     0.47709   0.38408   0.39715   0.00000  Uiso   1.00
C64    C     0.28770   0.30041   0.43815   0.00000  Uiso   1.00
O65    O     0.41271   0.33170   0.32472   0.00000  Uiso   1.00
O66    O     0.49782   0.58558   0.43790   0.00000  Uiso   1.00
O67    O     0.55300   0.52592   0.37872   0.00000  Uiso   1.00
O68    O     0.45272   0.37437   0.50252   0.00000  Uiso   1.00
O69    O     0.37476   0.47913   0.44938   0.00000  Uiso   1.00
O70    O     0.44645   0.51899   0.52318   0.00000  Uiso   1.00
O71    O     0.41047   0.48071   0.33027   0.00000  Uiso   1.00
C72    C     0.51072   0.39520   0.51446   0.00000  Uiso   1.00
O73    O     0.32506   0.43242   0.35138   0.00000  Uiso   1.00
C74    C     0.46811   0.33995   0.34331   0.00000  Uiso   1.00
O75    O     0.31418   0.29562   0.38721   0.00000  Uiso   1.00
O76    O     0.30644   0.34594   0.48011   0.00000  Uiso   1.00
C77    C     0.54089   0.58019   0.40068   0.00000  Uiso   1.00
C78    C     0.35254   0.46293   0.31678   0.00000  Uiso   1.00
C79    C     0.39191   0.50097   0.51330   0.00000  Uiso   1.00
C80    C     0.39605   0.81837   1.02704   0.00000  Uiso   1.00
C81    C     0.29386   0.76832   0.99188   0.00000  Uiso   1.00
C82    C     0.33404   0.74418   0.94839   0.00000  Uiso   1.00
S83    S     0.21700   0.74419   0.97959   0.00000  Uiso   1.00
S84    S     0.30427   0.69365   0.88313   0.00000  Uiso   1.00
S85    S     0.32311   0.82219   1.05505   0.00000  Uiso   1.00
S86    S     0.41067   0.76886  -0.04057   0.00000  Uiso   1.00
C87    C     0.22992   0.69844   0.90838   0.00000  Uiso   1.00
C88    C     0.50073   0.28497   0.34653   0.00000  Uiso   1.00
C89    C     0.50141   0.17981   0.35158   0.00000  Uiso   1.00
C90    C     0.55029   0.18941   0.31735   0.00000  Uiso   1.00
S91    S     0.47231   0.10866   0.34412   0.00000  Uiso   1.00
S92    S     0.58559   0.12835   0.27769   0.00000  Uiso   1.00
S93    S     0.46268   0.23981   0.38762   0.00000  Uiso   1.00
S94    S     0.56379   0.26047   0.30527   0.00000  Uiso   1.00
C95    C     0.52448   0.08379   0.28972   0.00000  Uiso   1.00
C96    C     0.71757   0.22739   0.57951   0.00000  Uiso   1.00
C97    C     0.66061   0.31936   0.57151   0.00000  Uiso   1.00
C98    C     0.61562   0.27581   0.56940   0.00000  Uiso   1.00
S99    S     0.63606   0.38793   0.56100   0.00000  Uiso   1.00
S100   S     0.53843   0.29190   0.55829   0.00000  Uiso   1.00
S101   S     0.73832   0.30099   0.57989   0.00000  Uiso   1.00
S102   S     0.63864   0.20635   0.57453   0.00000  Uiso   1.00
C103   C     0.55762   0.36339   0.54992   0.00000  Uiso   1.00
C104   C     0.66148   0.02931   0.78022   0.00000  Uiso   1.00
C105   C     0.60075   0.97360   0.84262   0.00000  Uiso   1.00
C106   C     0.61416   0.02811   0.88065   0.00000  Uiso   1.00
S107   S     0.56543   0.92027   0.87402   0.00000  Uiso   1.00
S108   S     0.59549   0.03960   0.95769   0.00000  Uiso   1.00
S109   S     0.62536   0.95956   0.76788   0.00000  Uiso   1.00
S110   S     0.65615   0.07887   0.85141   0.00000  Uiso   1.00
C111   C     0.56700   0.96697   0.94808   0.00000  Uiso   1.00
C112   C     0.78922   0.99572   0.44802   0.00000  Uiso   1.00
C113   C     0.71401   0.97776   0.35044   0.00000  Uiso   1.00
C114   C     0.76982   0.95542   0.33240   0.00000  Uiso   1.00
S115   S     0.65234   0.97316   0.29233   0.00000  Uiso   1.00
S116   S     0.77496  -0.07651   0.25494   0.00000  Uiso   1.00
S117   S     0.71064   1.00975   0.42913   0.00000  Uiso   1.00
S118   S     0.83230  -0.03966   0.38815   0.00000  Uiso   1.00
C119   C     0.69730   0.93738   0.23455   0.00000  Uiso   1.00
C120   C     0.35100   0.49879   0.56378   0.00000  Uiso   1.00
C121   C     0.31003   0.50009   0.66653   0.00000  Uiso   1.00
C122   C     0.26122   0.48152   0.62059   0.00000  Uiso   1.00
S123   S     0.29514   0.51311   0.74454   0.00000  Uiso   1.00
S124   S     0.18886   0.47115   0.64338   0.00000  Uiso   1.00
S125   S     0.38115   0.51547   0.64289   0.00000  Uiso   1.00
S126   S     0.27373   0.47549   0.54278   0.00000  Uiso   1.00
C127   C     0.21603   0.49632   0.72265   0.00000  Uiso   1.00
C128   C     0.20467   0.52971   0.07860   0.00000  Uiso   1.00
C129   C     0.28436   0.52382   0.16692   0.00000  Uiso   1.00
C130   C     0.23485   0.48767   0.17385   0.00000  Uiso   1.00
S131   S     0.34967   0.52882   0.21985   0.00000  Uiso   1.00
S132   S     0.24102   0.45015   0.23556   0.00000  Uiso   1.00
S133   S     0.27785   0.56225   0.10620   0.00000  Uiso   1.00
S134   S     0.17128   0.48004   0.11846   0.00000  Uiso   1.00
C135   C     0.31648   0.47941   0.26052   0.00000  Uiso   1.00
C136   C     0.23995   0.25868   0.44815   0.00000  Uiso   1.00
C137   C     0.13584   0.21485   0.45180   0.00000  Uiso   1.00
C138   C     0.16940   0.21219   0.50881   0.00000  Uiso   1.00
S139   S     0.05755   0.19499   0.44176   0.00000  Uiso   1.00
S140   S     0.13079   0.18896   0.56624   0.00000  Uiso   1.00
S141   S     0.17222   0.24417   0.39677   0.00000  Uiso   1.00
S142   S     0.24649   0.23756   0.52094   0.00000  Uiso   1.00
C143   C     1.06026   0.17991   0.51774   0.00000  Uiso   1.00
C144   C     0.93398   0.93095   0.64195   0.00000  Uiso   1.00
C145   C     0.94303   0.82484   0.65075   0.00000  Uiso   1.00
C146   C     1.00308   0.84760   0.65550   0.00000  Uiso   1.00
S147   S     0.93138   0.75308   0.66066   0.00000  Uiso   1.00
S148   S     0.06317   0.80260   0.67202   0.00000  Uiso   1.00
S149   S     0.88272   0.87102   0.64064   0.00000  Uiso   1.00
S150   S     0.01431   0.92089   0.64965   0.00000  Uiso   1.00
C151   C     1.01122   0.74437   0.67554   0.00000  Uiso   1.00
C152   C     0.99171   0.42762   0.79320   0.00000  Uiso   1.00
C153   C     0.91799   0.34144   0.78005   0.00000  Uiso   1.00
C154   C     0.96750   0.32138   0.74724   0.00000  Uiso   1.00
S155   S     0.85879   0.29197   0.78349   0.00000  Uiso   1.00
S156   S     0.96787   0.24729   0.71259   0.00000  Uiso   1.00
S157   S     0.91953   0.41404   0.81849   0.00000  Uiso   1.00
S158   S     0.02798   0.37066   0.74630   0.00000  Uiso   1.00
C159   C     0.89633   0.23371   0.73958   0.00000  Uiso   1.00
C160   C     0.73527   0.73929   0.96887   0.00000  Uiso   1.00
C161   C     0.82478   0.67306   0.95651   0.00000  Uiso   1.00
C162   C     0.84351   0.72633   0.94257   0.00000  Uiso   1.00
S163   S     0.87789   0.61737   0.95376   0.00000  Uiso   1.00
S164   S     0.91777   0.73475   0.92364   0.00000  Uiso   1.00
S165   S     0.75009   0.66644   0.97695   0.00000  Uiso   1.00
S166   S     0.79212   0.78239   0.94514   0.00000  Uiso   1.00
C167   C     0.93408   0.66244   0.93156   0.00000  Uiso   1.00
C168   C     0.57058   0.77382   0.24664   0.00000  Uiso   1.00
C169   C     0.56162   0.72593   0.33862   0.00000  Uiso   1.00
C170   C     0.59237   0.68696   0.29650   0.00000  Uiso   1.00
S171   S     0.53852   0.70183   0.40341   0.00000  Uiso   1.00
S172   S     0.60620   0.61717   0.31063   0.00000  Uiso   1.00
S173   S     0.54100   0.79307   0.31961   0.00000  Uiso   1.00
S174   S     0.60775   0.70678   0.22748   0.00000  Uiso   1.00
C175   C     0.56661   0.63133   0.37766   0.00000  Uiso   1.00
loop_
_geom_bond_atom_site_label_1
_geom_bond_atom_site_label_2
_geom_bond_distance
_geom_bond_site_symmetry_2
_ccdc_geom_bond_type
Y0     O2      2.208   .     S
Y0     O3      2.293   .     S
Y0     O6      2.251   .     S
Y0     O7      2.276   .     S
Y0     O9      2.252   .     S
Y0     O10     2.272   .     S
Y0     O11     2.220   .     S
Y1     O3      2.267   .     S
Y1     O5      2.234   .     S
Y1     O8      2.285   .     S
Y1     O9      2.262   .     S
Y1     O13     2.270   .     S
Y1     O15     2.262   .     S
Y1     O16     2.274   .     S
O2     C12     1.279   .     A
O3     C14     1.384   .     S
C4     O15     1.256   .     A
C4     O16     1.253   .     A
C4     C128    1.464   1_556 S
O5     C14     1.212   .     D
O6     C17     1.260   .     A
O7     C17     1.261   .     A
O8     C12     1.291   .     A
O9     C19     1.369   .     S
O10    C19     1.196   .     D
O11    C18     1.275   .     A
C12    C127    1.462   .     S
O13    C18     1.283   .     A
C14    C152    1.461   1_455 S
C17    C151    1.479   1_455 S
C18    C167    1.456   1_455 S
C19    C87     1.466   .     S
Y20    O22     2.207   .     S
Y20    O23     2.299   .     S
Y20    O26     2.222   .     S
Y20    O27     2.270   .     S
Y20    O29     2.279   .     S
Y20    O30     2.262   .     S
Y20    O31     2.215   .     S
Y21    O23     2.257   .     S
Y21    O25     2.263   .     S
Y21    O28     2.311   .     S
Y21    O29     2.242   .     S
Y21    O33     2.294   .     S
Y21    O35     2.271   .     S
Y21    O36     2.265   1_565 S
O22    C32     1.283   .     A
O23    C34     1.378   .     S
C24    O35     1.261   .     A
C24    O36     1.258   1_565 A
C24    C95     1.438   1_565 S
O25    C34     1.212   .     D
O26    C37     1.260   .     A
O27    C37     1.273   .     A
O28    C32     1.297   .     A
O29    C39     1.377   .     S
O30    C39     1.204   .     D
O31    C38     1.272   .     A
C32    C168    1.468   .     S
O33    C38     1.288   .     A
C34    C80     1.443   1_554 S
O36    Y21     2.265   1_545 S
O36    C24     1.258   1_545 A
C37    C160    1.461   1_554 S
C38    C111    1.477   1_554 S
C39    C119    1.464   .     S
Y40    O42     2.204   .     S
Y40    O43     2.324   .     S
Y40    O46     2.245   .     S
Y40    O47     2.288   .     S
Y40    O49     2.277   .     S
Y40    O50     2.264   .     S
Y40    O51     2.224   .     S
Y41    O43     2.270   .     S
Y41    O45     2.237   .     S
Y41    O48     2.340   .     S
Y41    O49     2.235   .     S
Y41    O53     2.288   .     S
Y41    O55     2.273   .     S
Y41    O56     2.267   .     S
O42    C52     1.274   .     A
O43    C54     1.387   .     S
C44    O55     1.262   .     A
C44    O56     1.259   .     A
C44    C143    1.475   .     S
O45    C54     1.212   .     D
O46    C57     1.255   .     A
O47    C57     1.265   .     A
O48    C52     1.302   .     A
O49    C59     1.376   .     S
O50    C59     1.207   .     D
O51    C58     1.276   .     A
C52    C96     1.474   .     S
O53    C58     1.286   .     A
C54    C112    1.476   1_545 S
C57    C104    1.475   .     S
C58    C144    1.477   1_545 S
C59    C159    1.473   .     S
Y60    O62     2.239   .     S
Y60    O63     2.294   .     S
Y60    O66     2.245   .     S
Y60    O67     2.257   .     S
Y60    O69     2.244   .     S
Y60    O70     2.261   .     S
Y60    O71     2.261   .     S
Y61    O63     2.236   .     S
Y61    O65     2.291   .     S
Y61    O68     2.322   .     S
Y61    O69     2.239   .     S
Y61    O73     2.251   .     S
Y61    O75     2.252   .     S
Y61    O76     2.290   .     S
O62    C72     1.287   .     A
O63    C74     1.370   .     S
C64    O75     1.259   .     A
C64    O76     1.264   .     A
C64    C136    1.437   .     S
O65    C74     1.206   .     D
O66    C77     1.261   .     A
O67    C77     1.270   .     A
O68    C72     1.299   .     A
O69    C79     1.372   .     S
O70    C79     1.210   .     D
O71    C78     1.280   .     A
C72    C103    1.471   .     S
O73    C78     1.277   .     A
C74    C88     1.443   .     S
C77    C175    1.462   .     S
C78    C135    1.472   .     S
C79    C120    1.456   .     S
C80    S85     1.712   .     A
C80    S86     1.709   1_556 A
C80    C34     1.443   1_556 S
C81    C82     1.365   .     A
C81    S83     1.697   .     A
C81    S85     1.701   .     A
C82    S84     1.692   .     A
C82    S86     1.696   1_556 A
S83    C87     1.718   .     A
S84    C87     1.716   .     A
S86    C80     1.709   1_554 A
S86    C82     1.696   1_554 A
C88    S93     1.711   .     A
C88    S94     1.715   .     A
C89    C90     1.364   .     A
C89    S91     1.694   .     A
C89    S93     1.695   .     A
C90    S92     1.703   .     A
C90    S94     1.704   .     A
S91    C95     1.706   .     A
S92    C95     1.704   .     A
C95    C24     1.438   1_545 S
C96    S101    1.719   .     A
C96    S102    1.726   .     A
C97    C98     1.358   .     A
C97    S99     1.693   .     A
C97    S101    1.709   .     A
C98    S100    1.689   .     A
C98    S102    1.674   .     A
S99    C103    1.731   .     A
S100   C103    1.713   .     A
C104   S110    1.724   .     A
C104   S109    1.713   1_545 A
C105   S107    1.690   .     A
C105   S109    1.700   .     A
C105   C106    1.354   1_565 A
C106   S108    1.701   .     A
C106   S110    1.693   .     A
C106   C105    1.354   1_545 A
S107   C111    1.725   .     A
S108   C111    1.716   1_545 A
S109   C104    1.713   1_565 A
C111   S108    1.716   1_565 A
C111   C38     1.477   1_556 S
C112   S117    1.727   .     A
C112   S118    1.723   1_565 A
C112   C54     1.476   1_565 S
C113   C114    1.356   .     A
C113   S115    1.703   .     A
C113   S117    1.707   .     A
C114   S116    1.689   1_565 A
C114   S118    1.683   1_565 A
S115   C119    1.720   .     A
S116   C114    1.689   1_545 A
S116   C119    1.714   1_545 A
S118   C112    1.723   1_545 A
S118   C114    1.683   1_545 A
C119   S116    1.714   1_565 A
C120   S125    1.717   .     A
C120   S126    1.710   .     A
C121   C122    1.361   .     A
C121   S123    1.696   .     A
C121   S125    1.692   .     A
C122   S124    1.684   .     A
C122   S126    1.687   .     A
S123   C127    1.719   .     A
S124   C127    1.720   .     A
C128   S133    1.715   .     A
C128   S134    1.719   .     A
C128   C4      1.464   1_554 S
C129   C130    1.362   .     A
C129   S131    1.691   .     A
C129   S133    1.689   .     A
C130   S132    1.693   .     A
C130   S134    1.692   .     A
S131   C135    1.724   .     A
S132   C135    1.724   .     A
C136   S141    1.712   .     A
C136   S142    1.703   .     A
C137   C138    1.361   .     A
C137   S139    1.701   .     A
C137   S141    1.696   .     A
C138   S140    1.697   .     A
C138   S142    1.710   .     A
S139   C143    1.715   1_455 A
S140   C143    1.724   1_455 A
C143   S139    1.715   1_655 A
C143   S140    1.724   1_655 A
C144   S149    1.726   .     A
C144   S150    1.721   1_655 A
C144   C58     1.477   1_565 S
C145   C146    1.358   .     A
C145   S147    1.698   .     A
C145   S149    1.688   .     A
C146   S148    1.696   1_655 A
C146   S150    1.705   1_655 A
S147   C151    1.717   .     A
S148   C146    1.696   1_455 A
S148   C151    1.728   1_455 A
S150   C144    1.721   1_455 A
S150   C146    1.705   1_455 A
C151   S148    1.728   1_655 A
C151   C17     1.479   1_655 S
C152   S157    1.718   .     A
C152   S158    1.717   1_655 A
C152   C14     1.461   1_655 S
C153   C154    1.355   .     A
C153   S155    1.692   .     A
C153   S157    1.693   .     A
C154   S156    1.703   .     A
C154   S158    1.697   1_655 A
S155   C159    1.720   .     A
S156   C159    1.722   .     A
S158   C152    1.717   1_455 A
S158   C154    1.697   1_455 A
C160   S165    1.722   .     A
C160   S166    1.717   .     A
C160   C37     1.461   1_556 S
C161   C162    1.361   .     A
C161   S163    1.700   .     A
C161   S165    1.699   .     A
C162   S164    1.684   .     A
C162   S166    1.682   .     A
S163   C167    1.720   .     A
S164   C167    1.715   .     A
C167   C18     1.456   1_655 S
C168   S173    1.717   .     A
C168   S174    1.719   .     A
C169   C170    1.357   .     A
C169   S171    1.692   .     A
C169   S173    1.699   .     A
C170   S172    1.690   .     A
C170   S174    1.678   .     A
S171   C175    1.722   .     A
S172   C175    1.709   .     A
