data_lcy+N123+E220
_audit_creation_date              2025-01-21
_audit_creation_method            'Materials Studio'
_symmetry_space_group_name_H-M    'P1'
_symmetry_Int_Tables_number       1
_symmetry_cell_setting            triclinic
loop_
_symmetry_equiv_pos_as_xyz
  x,y,z
_cell_length_a                    20.7147
_cell_length_b                    18.5957
_cell_length_c                    18.5501
_cell_angle_alpha                 93.3079
_cell_angle_beta                  107.8673
_cell_angle_gamma                 94.0958
loop_
_atom_site_label
_atom_site_type_symbol
_atom_site_fract_x
_atom_site_fract_y
_atom_site_fract_z
_atom_site_U_iso_or_equiv
_atom_site_adp_type
_atom_site_occupancy
Ce0    Ce    0.16920   0.61958   0.82715   0.00000  Uiso   1.00
Ce1    Ce    0.07627   0.65368   0.92115   0.00000  Uiso   1.00
C2     C     0.21557   0.71051   0.97831   0.00000  Uiso   1.00
C3     C     0.23819   0.58415   0.72933   0.00000  Uiso   1.00
C4     C     0.05549   0.73673   0.76770   0.00000  Uiso   1.00
C5     C     0.07887   0.50161   0.78367   0.00000  Uiso   1.00
C6     C     0.98438   0.67025  -0.00556   0.00000  Uiso   1.00
C7     C     0.18892   0.54474   0.99102   0.00000  Uiso   1.00
O8     O     0.18317   0.68611   0.01650   0.00000  Uiso   1.00
O9     O     0.17364   0.71386   0.90712   0.00000  Uiso   1.00
O10    O     0.25928   0.63758   0.78002   0.00000  Uiso   1.00
O11    O     0.18516   0.54634   0.73227   0.00000  Uiso   1.00
O12    O     0.09990   0.69882   0.74936   0.00000  Uiso   1.00
O13    O     0.03534   0.72677   0.82612   0.00000  Uiso   1.00
O14    O     0.12282   0.51524   0.75351   0.00000  Uiso   1.00
O15    O     0.07621   0.55812   0.83651   0.00000  Uiso   1.00
O16    O     0.98152   0.61601  -0.05150   0.00000  Uiso   1.00
O17    O     0.03601   0.71656   0.00533   0.00000  Uiso   1.00
O18    O     0.13491   0.57292  -0.00480   0.00000  Uiso   1.00
O19    O     0.21422   0.55183   0.93446   0.00000  Uiso   1.00
Ce20   Ce    0.56116   0.92407   0.11703   0.00000  Uiso   1.00
Ce21   Ce    0.64871   0.80701   0.08877   0.00000  Uiso   1.00
C22    C     0.50957   0.76508   0.04697   0.00000  Uiso   1.00
C23    C     0.51905   0.04806   0.16486   0.00000  Uiso   1.00
C24    C     0.65821   0.95539   0.00981   0.00000  Uiso   1.00
C25    C     0.68262   0.94859   0.22826   0.00000  Uiso   1.00
C26    C     0.75060   0.73016   0.08115   0.00000  Uiso   1.00
C27    C     0.57501   0.78529   0.22166   0.00000  Uiso   1.00
O28    O     0.55361   0.72837   0.08175   0.00000  Uiso   1.00
O29    O     0.53769   0.82824   0.02813   0.00000  Uiso   1.00
O30    O     0.48094   0.00625   0.10856   0.00000  Uiso   1.00
O31    O     0.57617   0.02540   0.19688   0.00000  Uiso   1.00
O32    O     0.61143   0.97914   0.03527   0.00000  Uiso   1.00
O33    O     0.68417   0.89539   0.02600   0.00000  Uiso   1.00
O34    O     0.64556  -0.00378   0.20695   0.00000  Uiso   1.00
O35    O     0.65524   0.88280   0.18917   0.00000  Uiso   1.00
O36    O     0.75240   0.76961   0.13996   0.00000  Uiso   1.00
O37    O     0.69207   0.71960   0.03001   0.00000  Uiso   1.00
O38    O     0.61068   0.75734   0.18181   0.00000  Uiso   1.00
O39    O     0.54514   0.84477   0.20591   0.00000  Uiso   1.00
Ce40   Ce    0.89290   0.12836   0.53564   0.00000  Uiso   1.00
Ce41   Ce    0.83599   0.09650   0.68567   0.00000  Uiso   1.00
C42    C     0.78735   0.01410   0.54405   0.00000  Uiso   1.00
C43    C     0.98760   0.15832   0.46757   0.00000  Uiso   1.00
C44    C     0.95780   0.01133   0.67948   0.00000  Uiso   1.00
C45    C     0.94846   0.21645   0.67200   0.00000  Uiso   1.00
C46    C     0.77833   0.06208   0.79308   0.00000  Uiso   1.00
C47    C     0.74045   0.18037   0.56155   0.00000  Uiso   1.00
O48    O     0.75139   0.03011   0.58122   0.00000  Uiso   1.00
O49    O     0.85217   0.03537   0.58232   0.00000  Uiso   1.00
O50    O     0.97344   0.09467   0.48408   0.00000  Uiso   1.00
O51    O    -0.04936   0.20608   0.48211   0.00000  Uiso   1.00
O52    O     0.94203   0.03170   0.61045   0.00000  Uiso   1.00
O53    O     0.93388   0.04057   0.72911   0.00000  Uiso   1.00
O54    O     0.97974   0.18160   0.64050   0.00000  Uiso   1.00
O55    O     0.88041   0.19683   0.63928   0.00000  Uiso   1.00
O56    O     0.80603   0.12540   0.79240   0.00000  Uiso   1.00
O57    O     0.78448   0.01609   0.74259   0.00000  Uiso   1.00
O58    O     0.74215   0.14492   0.61898   0.00000  Uiso   1.00
O59    O     0.79193   0.18872   0.53503   0.00000  Uiso   1.00
Ce60   Ce    0.45291   0.44315   0.40563   0.00000  Uiso   1.00
Ce61   Ce    0.34193   0.32627   0.40124   0.00000  Uiso   1.00
C62    C     0.47245   0.28427   0.45880   0.00000  Uiso   1.00
C63    C     0.51973   0.56886   0.39168   0.00000  Uiso   1.00
C64    C     0.34332   0.47792   0.49610   0.00000  Uiso   1.00
C65    C     0.34431   0.46265   0.28304   0.00000  Uiso   1.00
C66    C     0.23181   0.24080   0.39664   0.00000  Uiso   1.00
C67    C     0.44446   0.29975   0.29453   0.00000  Uiso   1.00
O68    O     0.42429   0.24642   0.41446   0.00000  Uiso   1.00
O69    O     0.45340   0.35044   0.48008   0.00000  Uiso   1.00
O70    O     0.54667   0.52773   0.44334   0.00000  Uiso   1.00
O71    O     0.46207   0.54416   0.34631   0.00000  Uiso   1.00
O72    O     0.39923   0.49980   0.48367   0.00000  Uiso   1.00
O73    O     0.30834   0.41756   0.46632   0.00000  Uiso   1.00
O74    O     0.38905   0.51048   0.31481   0.00000  Uiso   1.00
O75    O     0.35844   0.39679   0.31264   0.00000  Uiso   1.00
O76    O     0.23577   0.27456   0.33993   0.00000  Uiso   1.00
O77    O     0.28755   0.24137   0.45137   0.00000  Uiso   1.00
O78    O     0.39187   0.27442   0.31415   0.00000  Uiso   1.00
O79    O     0.47893   0.36242   0.32056   0.00000  Uiso   1.00
C80    C     0.43449   0.74730   1.03000   0.00000  Uiso   1.00
C81    C     0.40580   0.69523   0.06742   0.00000  Uiso   1.00
C82    C     0.33475   0.68775   0.05438   0.00000  Uiso   1.00
C83    C     0.29082   0.72770   1.00172   0.00000  Uiso   1.00
C84    C     0.31930   0.77725   0.96325   0.00000  Uiso   1.00
C85    C     0.38998   0.78766   0.97796   0.00000  Uiso   1.00
O86    O     0.43453   0.63200   0.17831   0.00000  Uiso   1.00
O87    O     0.48336   0.60561   0.08908   0.00000  Uiso   1.00
N88    N     0.44684   0.64732   0.11596   0.00000  Uiso   1.00
H89    H     0.28673   0.80818   0.92152   0.00000  Uiso   1.00
H90    H     0.40987   0.82682   0.94727   0.00000  Uiso   1.00
H91    H     0.31365   0.64709   0.08192   0.00000  Uiso   1.00
C92    C     0.47014   0.24869   0.24908   0.00000  Uiso   1.00
C93    C     0.42567   0.21199   0.18170   0.00000  Uiso   1.00
C94    C     0.44094   0.14574   0.15425   0.00000  Uiso   1.00
C95    C     0.50192   0.11765   0.19184   0.00000  Uiso   1.00
C96    C     0.54918   0.15817   0.25488   0.00000  Uiso   1.00
C97    C     0.53320   0.22305   0.28343   0.00000  Uiso   1.00
O98    O     0.38401   0.30994   0.11497   0.00000  Uiso   1.00
O99    O     0.31241   0.20971   0.10016   0.00000  Uiso   1.00
N100   N     0.37024   0.24676   0.13607   0.00000  Uiso   1.00
H101   H     0.59787   0.13880   0.28364   0.00000  Uiso   1.00
H102   H     0.56858   0.25111   0.33469   0.00000  Uiso   1.00
H103   H     0.40644   0.11757   0.10252   0.00000  Uiso   1.00
C104   C     0.67392   0.20893   0.52392   0.00000  Uiso   1.00
C105   C     0.61412   0.16028   0.49797   0.00000  Uiso   1.00
C106   C     0.54974   0.18618   0.47803   0.00000  Uiso   1.00
C107   C     0.54235   0.26032   0.48324   0.00000  Uiso   1.00
C108   C     0.60146   0.30916   0.50697   0.00000  Uiso   1.00
C109   C     0.66672   0.28363   0.52682   0.00000  Uiso   1.00
O110   O     0.58512   0.04175   0.52415   0.00000  Uiso   1.00
O111   O     0.63684   0.05617   0.43549   0.00000  Uiso   1.00
N112   N     0.61768   0.08385   0.49065   0.00000  Uiso   1.00
H113   H     0.59725   0.36686   0.51024   0.00000  Uiso   1.00
H114   H     0.71145   0.32203   0.54723   0.00000  Uiso   1.00
H115   H     0.50495   0.14760   0.45865   0.00000  Uiso   1.00
C116   C     0.74015   0.04291   0.84584   0.00000  Uiso   1.00
C117   C     0.68748   0.98559   0.82453   0.00000  Uiso   1.00
C118   C     0.65932   0.96057   0.87893   0.00000  Uiso   1.00
C119   C     0.67990   0.99356   0.95305   0.00000  Uiso   1.00
C120   C     0.72859   0.05362   0.97303   0.00000  Uiso   1.00
C121   C     0.75841   0.07838   0.91943   0.00000  Uiso   1.00
O122   O     0.64383   0.88381   0.73485   0.00000  Uiso   1.00
O123   O     0.64517  -0.00623   0.69130   0.00000  Uiso   1.00
N124   N     0.66121   0.95313   0.74780   0.00000  Uiso   1.00
H125   H     0.74589   0.07889   0.03067   0.00000  Uiso   1.00
H126   H     0.79793   0.12305   0.93645   0.00000  Uiso   1.00
H127   H     0.62147   0.91426   0.86367   0.00000  Uiso   1.00
C128   C     0.76612  -0.01038   0.46312   0.00000  Uiso   1.00
C129   C     0.74661   0.91661   0.43358   0.00000  Uiso   1.00
C130   C     0.72847   0.90085   0.35403   0.00000  Uiso   1.00
C131   C     0.72993   0.95622   0.30563   0.00000  Uiso   1.00
C132   C     0.75662   0.02587   0.33691   0.00000  Uiso   1.00
C133   C     0.77405   0.04225   0.41447   0.00000  Uiso   1.00
O134   O     0.73529   0.79166   0.45373   0.00000  Uiso   1.00
O135   O     0.75074   0.87177   0.55342   0.00000  Uiso   1.00
N136   N     0.74424   0.85873   0.48173   0.00000  Uiso   1.00
H137   H     0.75777   0.06932   0.30062   0.00000  Uiso   1.00
H138   H     0.79072   0.09774   0.43557   0.00000  Uiso   1.00
H139   H     0.70778   0.84662   0.32951   0.00000  Uiso   1.00
C140   C     0.31930   0.52150   0.55053   0.00000  Uiso   1.00
C141   C     0.25070   0.53809   0.53277   0.00000  Uiso   1.00
C142   C     0.22569   0.55935   0.59259   0.00000  Uiso   1.00
C143   C     0.26837   0.56868   0.66826   0.00000  Uiso   1.00
C144   C     0.33762   0.55954   0.68418   0.00000  Uiso   1.00
C145   C     0.36269   0.53553   0.62580   0.00000  Uiso   1.00
O146   O     0.14209   0.54255   0.44067   0.00000  Uiso   1.00
O147   O     0.23235   0.53692   0.39926   0.00000  Uiso   1.00
N148   N     0.20682   0.53559   0.45517   0.00000  Uiso   1.00
H149   H     0.37131   0.56670   0.74225   0.00000  Uiso   1.00
H150   H     0.41530   0.52360   0.64022   0.00000  Uiso   1.00
H151   H     0.17269   0.56941   0.58048   0.00000  Uiso   1.00
C152   C     0.22629   0.51551   0.06340   0.00000  Uiso   1.00
C153   C     0.24939   0.44589   0.07049   0.00000  Uiso   1.00
C154   C     0.28288   0.42525   0.14437   0.00000  Uiso   1.00
C155   C     0.29401   0.47339   0.20954   0.00000  Uiso   1.00
C156   C     0.26723   0.53995   0.20147   0.00000  Uiso   1.00
C157   C     0.23297   0.55992   0.13009   0.00000  Uiso   1.00
O158   O     0.28005   0.34837   0.00291   0.00000  Uiso   1.00
O159   O     0.18233   0.39536   0.94702   0.00000  Uiso   1.00
N160   N     0.23735   0.39581   0.00468   0.00000  Uiso   1.00
H161   H     0.27473   0.57788   0.25058   0.00000  Uiso   1.00
H162   H     0.21338   0.61238   0.12726   0.00000  Uiso   1.00
H163   H     0.30107   0.37253   0.15140   0.00000  Uiso   1.00
C164   C     0.16547   0.21663   0.40454   0.00000  Uiso   1.00
C165   C     0.12100   0.26902   0.41141   0.00000  Uiso   1.00
C166   C     0.06152   0.24835   0.42834   0.00000  Uiso   1.00
C167   C     0.04540   0.17635   0.43922   0.00000  Uiso   1.00
C168   C     0.08922   0.12408   0.43140   0.00000  Uiso   1.00
C169   C     0.14937   0.14434   0.41508   0.00000  Uiso   1.00
O170   O     0.14584   0.37024   0.34900   0.00000  Uiso   1.00
O171   O     0.13916   0.38917   0.46704   0.00000  Uiso   1.00
N172   N     0.13932   0.34463   0.41040   0.00000  Uiso   1.00
H173   H     0.07829   0.06813   0.44068   0.00000  Uiso   1.00
H174   H     0.18409   0.10411   0.41255   0.00000  Uiso   1.00
H175   H     0.02922   0.28957   0.43602   0.00000  Uiso   1.00
C176   C     0.98621   0.94020   0.69373   0.00000  Uiso   1.00
C177   C     0.05162   0.92329   0.69129   0.00000  Uiso   1.00
C178   C     0.07176   0.85284   0.70798   0.00000  Uiso   1.00
C179   C     0.02827   0.79969   0.72561   0.00000  Uiso   1.00
C180   C     0.96239   0.81622   0.72179   0.00000  Uiso   1.00
C181   C     0.94196   0.88499   0.70633   0.00000  Uiso   1.00
O182   O     0.16127   0.96166   0.68328   0.00000  Uiso   1.00
O183   O     0.08108   1.03866   0.65264   0.00000  Uiso   1.00
N184   N     0.09918   0.97630   0.67590   0.00000  Uiso   1.00
H185   H     0.92736   0.77655   0.73457   0.00000  Uiso   1.00
H186   H     0.89092   0.89559   0.70534   0.00000  Uiso   1.00
H187   H     0.12288   0.84052   0.71159   0.00000  Uiso   1.00
C188   C     1.04324   0.42685   0.77183   0.00000  Uiso   1.00
C189   C     0.97336   0.40973   0.76368   0.00000  Uiso   1.00
C190   C     0.94247   0.33874   0.73601   0.00000  Uiso   1.00
C191   C     0.98089   0.28388   0.72053   0.00000  Uiso   1.00
C192   C     0.05130   0.29992   0.73705   0.00000  Uiso   1.00
C193   C     0.08160   0.37002   0.76113   0.00000  Uiso   1.00
O194   O     0.86950   0.46369   0.73950   0.00000  Uiso   1.00
O195   O     0.95360   0.50003   0.84684   0.00000  Uiso   1.00
N196   N     0.93278   0.46339   0.78090   0.00000  Uiso   1.00
H197   H     0.08252   0.25946   0.72509   0.00000  Uiso   1.00
H198   H     0.13544   0.38055   0.76824   0.00000  Uiso   1.00
H199   H     0.88805   0.32722   0.72355   0.00000  Uiso   1.00
C200   C     0.81395   0.70899   0.06941   0.00000  Uiso   1.00
C201   C     0.87533   0.75567   0.09793   0.00000  Uiso   1.00
C202   C     0.93257   0.73963   0.07741   0.00000  Uiso   1.00
C203   C     0.92931   0.67948   0.02750   0.00000  Uiso   1.00
C204   C     0.86973   0.63165   0.00252   0.00000  Uiso   1.00
C205   C     0.81248   0.64635   0.02320   0.00000  Uiso   1.00
O206   O     0.93124   0.84128   0.20172   0.00000  Uiso   1.00
O207   O     0.83939   0.87215   1.11253   0.00000  Uiso   1.00
N208   N     0.87899   0.82295   1.14164   0.00000  Uiso   1.00
H209   H     0.86630   0.58444  -0.03590   0.00000  Uiso   1.00
H210   H     0.76645   0.60986   0.00124   0.00000  Uiso   1.00
H211   H     0.97820   0.77697   0.09664   0.00000  Uiso   1.00
C212   C     0.57141   0.74528   0.28735   0.00000  Uiso   1.00
C213   C     0.52035   0.75148   0.32267   0.00000  Uiso   1.00
C214   C     0.50898   0.69637   0.36721   0.00000  Uiso   1.00
C215   C     0.55004   0.63850   0.38016   0.00000  Uiso   1.00
C216   C     0.60751   0.63988   0.35653   0.00000  Uiso   1.00
C217   C     0.61785   0.69250   0.31007   0.00000  Uiso   1.00
O218   O     0.41309   0.79761   0.30235   0.00000  Uiso   1.00
O219   O     0.50547   0.87644   0.32518   0.00000  Uiso   1.00
N220   N     0.47775   0.81001   0.31100   0.00000  Uiso   1.00
H221   H     0.63964   0.59563   0.36613   0.00000  Uiso   1.00
H222   H     0.65953   0.68790   0.28687   0.00000  Uiso   1.00
H223   H     0.46535   0.69598   0.38781   0.00000  Uiso   1.00
loop_
_geom_bond_atom_site_label_1
_geom_bond_atom_site_label_2
_geom_bond_distance
_geom_bond_site_symmetry_2
_ccdc_geom_bond_type
Ce0    O9      2.208   .     S
Ce0    O10     2.303   .     S
Ce0    O11     2.282   .     S
Ce0    O12     2.364   .     S
Ce0    O14     2.275   .     S
Ce0    O15     2.227   .     S
Ce0    O19     2.395   .     S
Ce1    O9      2.329   .     S
Ce1    O13     2.280   .     S
Ce1    O15     2.302   .     S
Ce1    O8      2.383   1_556 S
Ce1    O16     2.249   1_456 S
Ce1    O17     2.287   1_556 S
Ce1    O18     2.257   1_556 S
C2     O9      1.347   .     S
C2     C83     1.489   .     S
C2     O8      1.201   1_556 D
C3     O10     1.281   .     A
C3     O11     1.279   .     A
C3     C143    1.477   .     S
C4     O12     1.310   .     A
C4     O13     1.293   .     A
C4     C179    1.493   .     S
C5     O14     1.225   .     D
C5     O15     1.411   .     S
C5     C188    1.498   1_455 S
C6     O16     1.268   .     A
C6     C203    1.467   .     S
C6     O17     1.281   1_655 A
C7     O19     1.318   .     A
C7     O18     1.290   1_556 A
C7     C152    1.485   1_556 S
O8     Ce1     2.383   1_554 S
O8     C2      1.201   1_554 D
O16    Ce1     2.249   1_654 S
O17    Ce1     2.287   1_554 S
O17    C6      1.281   1_455 A
O18    Ce1     2.257   1_554 S
O18    C7      1.290   1_554 A
Ce20   O29     2.275   .     S
Ce20   O32     2.330   .     S
Ce20   O35     2.216   .     S
Ce20   O39     2.356   .     S
Ce20   O30     2.313   1_565 S
Ce20   O31     2.270   1_565 S
Ce20   O34     2.293   1_565 S
Ce21   O28     2.334   .     S
Ce21   O29     2.303   .     S
Ce21   O33     2.274   .     S
Ce21   O35     2.234   .     S
Ce21   O36     2.244   .     S
Ce21   O37     2.289   .     S
Ce21   O38     2.317   .     S
C22    O28     1.222   .     D
C22    O29     1.384   .     S
C22    C80     1.497   1_554 S
C23    O30     1.277   .     A
C23    O31     1.265   .     A
C23    C95     1.467   .     S
C24    O32     1.294   .     A
C24    O33     1.284   .     A
C24    C119    1.465   1_554 S
C25    O35     1.375   .     S
C25    C131    1.461   .     S
C25    O34     1.217   1_565 D
C26    O36     1.268   .     A
C26    O37     1.283   .     A
C26    C200    1.471   .     S
C27    O38     1.307   .     A
C27    O39     1.310   .     A
C27    C212    1.482   .     S
O30    Ce20    2.313   1_545 S
O31    Ce20    2.270   1_545 S
O34    Ce20    2.293   1_545 S
O34    C25     1.217   1_545 D
Ce40   O49     2.206   .     S
Ce40   O50     2.270   .     S
Ce40   O52     2.424   .     S
Ce40   O54     2.319   .     S
Ce40   O55     2.335   .     S
Ce40   O59     2.441   .     S
Ce40   O51     2.270   1_655 S
Ce41   O48     2.383   .     S
Ce41   O49     2.297   .     S
Ce41   O53     2.289   .     S
Ce41   O55     2.344   .     S
Ce41   O56     2.296   .     S
Ce41   O57     2.266   .     S
Ce41   O58     2.241   .     S
C42    O48     1.201   .     D
C42    O49     1.330   .     S
C42    C128    1.463   .     S
C43    O50     1.276   .     A
C43    O51     1.282   1_655 A
C43    C167    1.474   1_655 S
C44    O52     1.307   .     A
C44    O53     1.284   .     A
C44    C176    1.491   1_545 S
C45    O54     1.196   .     D
C45    O55     1.366   .     S
C45    C191    1.487   .     S
C46    O56     1.275   .     A
C46    O57     1.273   .     A
C46    C116    1.478   .     S
C47    O58     1.278   .     A
C47    O59     1.308   .     A
C47    C104    1.492   .     S
O51    Ce40    2.270   1_455 S
O51    C43     1.282   1_455 A
Ce60   O69     2.269   .     S
Ce60   O70     2.310   .     S
Ce60   O71     2.256   .     S
Ce60   O72     2.328   .     S
Ce60   O74     2.295   .     S
Ce60   O75     2.250   .     S
Ce60   O79     2.324   .     S
Ce61   O68     2.307   .     S
Ce61   O69     2.319   .     S
Ce61   O73     2.296   .     S
Ce61   O75     2.251   .     S
Ce61   O76     2.256   .     S
Ce61   O77     2.277   .     S
Ce61   O78     2.366   .     S
C62    O68     1.223   .     D
C62    O69     1.391   .     S
C62    C107    1.488   .     S
C63    O70     1.278   .     A
C63    O71     1.267   .     A
C63    C215    1.454   .     S
C64    O72     1.291   .     A
C64    O73     1.287   .     A
C64    C140    1.482   .     S
C65    O74     1.218   .     D
C65    O75     1.385   .     S
C65    C155    1.474   .     S
C66    O76     1.276   .     A
C66    O77     1.281   .     A
C66    C164    1.468   .     S
C67    O78     1.316   .     A
C67    O79     1.306   .     A
C67    C92     1.466   .     S
C80    C85     1.408   .     A
C80    C81     1.421   1_556 A
C80    C22     1.497   1_556 S
C81    C82     1.412   .     A
C81    N88     1.435   .     S
C81    C80     1.421   1_554 A
C82    H91     1.076   .     S
C82    C83     1.403   1_554 A
C83    C84     1.401   .     A
C83    C82     1.403   1_556 A
C84    C85     1.401   .     A
C84    H89     1.082   .     S
C85    H90     1.083   .     S
O86    N88     1.301   .     A
O87    N88     1.301   .     A
C92    C93     1.408   .     A
C92    C97     1.398   .     A
C93    C94     1.400   .     A
C93    N100    1.423   .     S
C94    C95     1.397   .     A
C94    H103    1.083   .     S
C95    C96     1.408   .     A
C96    C97     1.392   .     A
C96    H101    1.084   .     S
C97    H102    1.084   .     S
O98    N100    1.300   .     A
O99    N100    1.301   .     A
C104   C105    1.417   .     A
C104   C109    1.407   .     A
C105   C106    1.399   .     A
C105   N112    1.429   .     S
C106   C107    1.399   .     A
C106   H115    1.084   .     S
C107   C108    1.408   .     A
C108   C109    1.412   .     A
C108   H113    1.082   .     S
C109   H114    1.082   .     S
O110   N112    1.301   .     A
O111   N112    1.299   .     A
C116   C121    1.409   .     A
C116   C117    1.415   1_545 A
C117   C118    1.397   .     A
C117   N124    1.437   .     S
C117   C116    1.415   1_565 A
C118   C119    1.398   .     A
C118   H127    1.084   .     S
C119   C120    1.401   1_565 A
C119   C24     1.465   1_556 S
C120   C121    1.404   .     A
C120   C119    1.401   1_545 A
C120   H125    1.084   1_556 S
C121   H126    1.083   .     S
O122   N124    1.302   .     A
O123   N124    1.301   1_545 A
N124   O123    1.301   1_565 A
H125   C120    1.084   1_554 S
C128   C133    1.403   .     A
C128   C129    1.417   1_545 A
C129   C130    1.414   .     A
C129   N136    1.445   .     S
C129   C128    1.417   1_565 A
C130   C131    1.409   .     A
C130   H139    1.083   .     S
C131   C132    1.391   1_565 A
C132   C133    1.381   .     A
C132   H137    1.085   .     S
C132   C131    1.391   1_545 A
C133   H138    1.075   .     S
O134   N136    1.301   .     A
O135   N136    1.301   .     A
C140   C141    1.418   .     A
C140   C145    1.407   .     A
C141   C142    1.410   .     A
C141   N148    1.444   .     S
C142   C143    1.404   .     A
C142   H151    1.083   .     S
C143   C144    1.398   .     A
C144   C145    1.402   .     A
C144   H149    1.083   .     S
C145   H150    1.082   .     S
O146   N148    1.302   .     A
O147   N148    1.301   .     A
C152   C153    1.411   .     A
C152   C157    1.411   .     A
C152   C7      1.485   1_554 S
C153   C154    1.422   .     A
C153   N160    1.438   .     S
C154   C155    1.411   .     A
C154   H163    1.076   .     S
C155   C156    1.389   .     A
C156   C157    1.383   .     A
C156   H161    1.084   .     S
C157   H162    1.081   .     S
O158   N160    1.299   .     A
O159   N160    1.301   1_556 A
N160   O159    1.301   1_554 A
C164   C165    1.414   .     A
C164   C169    1.401   .     A
C165   C166    1.396   .     A
C165   N172    1.433   .     S
C166   C167    1.398   .     A
C166   H175    1.084   .     S
C167   C168    1.407   .     A
C167   C43     1.474   1_455 S
C168   C169    1.401   .     A
C168   H173    1.084   .     S
C169   H174    1.083   .     S
O170   N172    1.300   .     A
O171   N172    1.301   .     A
C176   C181    1.405   .     A
C176   C177    1.426   1_655 A
C176   C44     1.491   1_565 S
C177   C178    1.426   .     A
C177   N184    1.446   .     S
C177   C176    1.426   1_455 A
C178   C179    1.409   .     A
C178   H187    1.082   .     S
C179   C180    1.402   1_455 A
C180   C181    1.394   .     A
C180   H185    1.085   .     S
C180   C179    1.402   1_655 A
C181   H186    1.084   .     S
O182   N184    1.301   .     A
O183   N184    1.301   .     A
C188   C189    1.419   .     A
C188   C193    1.407   1_655 A
C188   C5      1.498   1_655 S
C189   C190    1.420   .     A
C189   N196    1.433   .     S
C190   C191    1.407   .     A
C190   H199    1.082   .     S
C191   C192    1.401   1_655 A
C192   C193    1.392   .     A
C192   H197    1.083   .     S
C192   C191    1.401   1_455 A
C193   H198    1.084   .     S
C193   C188    1.407   1_455 A
O194   N196    1.301   .     A
O195   N196    1.298   .     A
C200   C201    1.424   .     A
C200   C205    1.399   .     A
C201   C202    1.398   .     A
C201   N208    1.435   1_554 S
C202   C203    1.394   .     A
C202   H211    1.083   .     S
C203   C204    1.405   .     A
C204   C205    1.393   .     A
C204   H209    1.082   .     S
C205   H210    1.083   .     S
O206   N208    1.301   1_554 A
O207   N208    1.301   .     A
N208   C201    1.435   1_556 S
N208   O206    1.301   1_556 A
C212   C213    1.412   .     A
C212   C217    1.414   .     A
C213   C214    1.404   .     A
C213   N220    1.434   .     S
C214   C215    1.405   .     A
C214   H223    1.084   .     S
C215   C216    1.388   .     A
C216   C217    1.388   .     A
C216   H221    1.084   .     S
C217   H222    1.083   .     S
O218   N220    1.301   .     A
O219   N220    1.301   .     A
