data_lcy+N505+E8
_audit_creation_date              2025-01-21
_audit_creation_method            'Materials Studio'
_symmetry_space_group_name_H-M    'P1'
_symmetry_Int_Tables_number       1
_symmetry_cell_setting            triclinic
loop_
_symmetry_equiv_pos_as_xyz
  x,y,z
_cell_length_a                    23.7483
_cell_length_b                    23.3548
_cell_length_c                    20.2351
_cell_angle_alpha                 92.1716
_cell_angle_beta                  94.5229
_cell_angle_gamma                 101.9246
loop_
_atom_site_label
_atom_site_type_symbol
_atom_site_fract_x
_atom_site_fract_y
_atom_site_fract_z
_atom_site_U_iso_or_equiv
_atom_site_adp_type
_atom_site_occupancy
Yb0    Yb    0.14251   0.59367   0.78641   0.00000  Uiso   1.00
Yb1    Yb    0.08974   0.68743   0.96699   0.00000  Uiso   1.00
C2     C     0.00481   0.69968   1.02403   0.00000  Uiso   1.00
O3     O     0.07815   0.52462   0.81250   0.00000  Uiso   1.00
O4     O     0.08074   0.55199   0.70979   0.00000  Uiso   1.00
O5     O     0.09797   0.66619   0.80023   0.00000  Uiso   1.00
O6     O     0.04494   0.69909   0.87444   0.00000  Uiso   1.00
O7     O     0.19512   0.53930   0.75325   0.00000  Uiso   1.00
O8     O     0.20549   0.63036   0.72374   0.00000  Uiso   1.00
O9     O     0.17025   0.74237   0.95628   0.00000  Uiso   1.00
O10    O     0.15423   0.69750   1.04840   0.00000  Uiso   1.00
C11    C     0.06213   0.51259   0.75038   0.00000  Uiso   1.00
O12    O     0.19581   0.60793   0.87946   0.00000  Uiso   1.00
O13    O     0.11577   0.61628   0.91860   0.00000  Uiso   1.00
O14    O     0.04638   0.74360   1.01601   0.00000  Uiso   1.00
C15    C     0.06860   0.70288   0.81988   0.00000  Uiso   1.00
O16    O     0.01178   0.64829   1.00525   0.00000  Uiso   1.00
C17    C     0.21741   0.57926   0.71530   0.00000  Uiso   1.00
C18    C     0.18987   0.73152   1.01450   0.00000  Uiso   1.00
C19    C     0.16634   0.60786   0.92906   0.00000  Uiso   1.00
Yb20   Yb    0.65379   0.87036   0.08780   0.00000  Uiso   1.00
Yb21   Yb    0.50898   0.90853   0.21613   0.00000  Uiso   1.00
C22    C     0.46116  -0.01451   0.25402   0.00000  Uiso   1.00
O23    O     0.64019   0.93049   0.01652   0.00000  Uiso   1.00
O24    O     0.72538   0.93538   0.07042   0.00000  Uiso   1.00
O25    O     0.63316   0.92291   0.16898   0.00000  Uiso   1.00
O26    O     0.59034   0.96822   0.23946   0.00000  Uiso   1.00
O27    O     0.68711   0.81583   0.02419   0.00000  Uiso   1.00
O28    O     0.70193   0.81269   0.13244   0.00000  Uiso   1.00
O29    O     0.53158   0.83512   0.25823   0.00000  Uiso   1.00
O30    O     0.44294   0.83273   0.21573   0.00000  Uiso   1.00
C31    C     0.69513   0.95107   0.02134   0.00000  Uiso   1.00
O32    O     0.56807   0.81128   0.07764   0.00000  Uiso   1.00
O33    O     0.53587   0.88322   0.12173   0.00000  Uiso   1.00
O34    O     0.47598   0.94860   0.29474   0.00000  Uiso   1.00
C35    C     0.63633   0.95405   0.22257   0.00000  Uiso   1.00
O36    O     0.46774  -0.02346   0.19201   0.00000  Uiso   1.00
C37    C     0.71638   0.80038   0.07413   0.00000  Uiso   1.00
C38    C     0.48033   0.80499   0.24195   0.00000  Uiso   1.00
C39    C     0.52513   0.83212   0.09412   0.00000  Uiso   1.00
Yb40   Yb    0.94868   0.04788   0.64559   0.00000  Uiso   1.00
Yb41   Yb    0.87663   0.16784   0.55625   0.00000  Uiso   1.00
C42    C     0.78364   0.19241   0.52210   0.00000  Uiso   1.00
O43    O     0.88294   0.06668   0.70251   0.00000  Uiso   1.00
O44    O     0.88931   0.97655   0.67729   0.00000  Uiso   1.00
O45    O     0.89643   0.03592   0.54900   0.00000  Uiso   1.00
O46    O     0.83216   0.08432   0.57946   0.00000  Uiso   1.00
O47    O     1.00450   1.03569   0.72731   0.00000  Uiso   1.00
O48    O     0.01214  -0.00109   0.62803   0.00000  Uiso   1.00
O49    O     0.94428   0.14811   0.50409   0.00000  Uiso   1.00
O50    O     0.93592   0.23920   0.52200   0.00000  Uiso   1.00
C51    C     0.86555   0.01172   0.71056   0.00000  Uiso   1.00
O52    O     1.00278   0.13585   0.63759   0.00000  Uiso   1.00
O53    O     0.92503   0.16977   0.64907   0.00000  Uiso   1.00
O54    O     0.81312   0.17199   0.47911   0.00000  Uiso   1.00
C55    C     0.84527   0.04539   0.54247   0.00000  Uiso   1.00
O56    O     0.80730   0.20326   0.58218   0.00000  Uiso   1.00
C57    C     1.02558   1.00015   0.69112   0.00000  Uiso   1.00
C58    C     0.96544   0.20305   0.49963   0.00000  Uiso   1.00
C59    C     0.97907   0.17918   0.64950   0.00000  Uiso   1.00
Yb60   Yb    0.36520   0.41745   0.29571   0.00000  Uiso   1.00
Yb61   Yb    0.40111   0.31230   0.44889   0.00000  Uiso   1.00
C62    C     0.47964   0.26851   0.49541   0.00000  Uiso   1.00
O63    O     0.44929   0.45657   0.33741   0.00000  Uiso   1.00
O64    O     0.42731   0.44362   0.22949   0.00000  Uiso   1.00
O65    O     0.37555   0.32786   0.28163   0.00000  Uiso   1.00
O66    O     0.44371   0.32686   0.36106   0.00000  Uiso   1.00
O67    O     0.34093   0.49778   0.27901   0.00000  Uiso   1.00
O68    O     0.29417   0.41609   0.22583   0.00000  Uiso   1.00
O69    O     0.31377   0.28040   0.41240   0.00000  Uiso   1.00
O70    O     0.34086   0.28948   0.51921   0.00000  Uiso   1.00
C71    C     0.45943   0.47325   0.27862   0.00000  Uiso   1.00
O72    O     0.31569   0.40882   0.38229   0.00000  Uiso   1.00
O73    O     0.39095   0.40102   0.44963   0.00000  Uiso   1.00
O74    O     0.43373   0.23593   0.46442   0.00000  Uiso   1.00
C75    C     0.41292   0.30289   0.30975   0.00000  Uiso   1.00
O76    O     0.48030   0.32351   0.50456   0.00000  Uiso   1.00
C77    C     0.30484   0.47251   0.23072   0.00000  Uiso   1.00
C78    C     0.29917   0.27730   0.47246   0.00000  Uiso   1.00
C79    C     0.34161   0.41319   0.44062   0.00000  Uiso   1.00
C80    C     0.36537   0.80788   0.06826   0.00000  Uiso   1.00
C81    C     0.34887   0.74821   1.04853   0.00000  Uiso   1.00
N82    N     0.39050   0.71635   1.04302   0.00000  Uiso   1.00
C83    C     0.44774   0.74139   1.05732   0.00000  Uiso   1.00
C84    C     0.46416   0.80098   0.07870   0.00000  Uiso   1.00
N85    N     0.42215   0.83265   0.08222   0.00000  Uiso   1.00
N86    N     0.32442   0.84034   0.07302   0.00000  Uiso   1.00
C87    C     0.26742   0.81589   0.05875   0.00000  Uiso   1.00
C88    C     0.25038   0.75619   1.03900   0.00000  Uiso   1.00
N89    N     0.29171   0.72363   1.03394   0.00000  Uiso   1.00
H90    H     0.47990   0.71510   1.05249   0.00000  Uiso   1.00
H91    H     0.23572   0.84300   0.06187   0.00000  Uiso   1.00
C92    C     0.43281   0.15005   0.31608   0.00000  Uiso   1.00
C93    C     0.42061   0.12973   0.24940   0.00000  Uiso   1.00
N94    N     0.40487   0.16588   0.20357   0.00000  Uiso   1.00
C95    C     0.40112   0.22167   0.22152   0.00000  Uiso   1.00
C96    C     0.41519   0.24269   0.28801   0.00000  Uiso   1.00
N97    N     0.43061   0.20606   0.33348   0.00000  Uiso   1.00
N98    N     0.44784   0.11388   0.36218   0.00000  Uiso   1.00
C99    C     0.45275   0.05854   0.34429   0.00000  Uiso   1.00
C100   C     0.44345   0.03897   0.27698   0.00000  Uiso   1.00
N101   N     0.42707   0.07509   0.23121   0.00000  Uiso   1.00
H102   H     0.38847   0.24965   0.18414   0.00000  Uiso   1.00
H103   H     0.46681   0.03139   0.38174   0.00000  Uiso   1.00
C104   C     0.64232   0.23071   0.54182   0.00000  Uiso   1.00
C105   C     0.61127   0.21052   0.48056   0.00000  Uiso   1.00
N106   N     0.63745   0.18560   0.43314   0.00000  Uiso   1.00
C107   C     0.69338   0.18003   0.44426   0.00000  Uiso   1.00
C108   C     0.72451   0.20046   0.50558   0.00000  Uiso   1.00
N109   N     0.69783   0.22494   0.55290   0.00000  Uiso   1.00
N110   N     0.61713   0.25723   0.58866   0.00000  Uiso   1.00
C111   C     0.56247   0.26571   0.57657   0.00000  Uiso   1.00
C112   C     0.53150   0.24657   0.51503   0.00000  Uiso   1.00
N113   N     0.55653   0.21903   0.46841   0.00000  Uiso   1.00
H114   H     0.71303   0.15938   0.40599   0.00000  Uiso   1.00
H115   H     0.54407   0.28909   0.61369   0.00000  Uiso   1.00
C116   C     0.77486   0.01200   0.85157   0.00000  Uiso   1.00
C117   C     0.76989  -0.04592   0.87012   0.00000  Uiso   1.00
N118   N     0.79091  -0.08470   0.83283   0.00000  Uiso   1.00
C119   C     0.81808  -0.06797   0.77813   0.00000  Uiso   1.00
C120   C     0.82574  -0.00938   0.76060   0.00000  Uiso   1.00
N121   N     0.80349   0.02936   0.79765   0.00000  Uiso   1.00
N122   N     0.75268   1.05018   0.88926   0.00000  Uiso   1.00
C123   C     0.72621   1.03287   0.94493   0.00000  Uiso   1.00
C124   C     0.72334   0.97534  -0.03578   0.00000  Uiso   1.00
N125   N     0.74483  -0.06249   0.92585   0.00000  Uiso   1.00
H126   H     0.83599  -0.09959   0.75067   0.00000  Uiso   1.00
H127   H     0.70841   1.06357   0.97402   0.00000  Uiso   1.00
C128   C     0.77401  -0.00938   0.37436   0.00000  Uiso   1.00
C129   C     0.71655   0.99068   0.38563   0.00000  Uiso   1.00
N130   N     0.70231   1.00193   0.44734   0.00000  Uiso   1.00
C131   C     0.74330   0.01503   0.49886   0.00000  Uiso   1.00
C132   C     0.80169   0.01839   0.48829   0.00000  Uiso   1.00
N133   N     0.81600   0.00530   0.42603   0.00000  Uiso   1.00
N134   N     0.78656  -0.02200   0.31141   0.00000  Uiso   1.00
C135   C     0.74415   0.96597   0.25971   0.00000  Uiso   1.00
C136   C     0.68700   0.96820   0.27156   0.00000  Uiso   1.00
N137   N     0.67540   0.98012   0.33452   0.00000  Uiso   1.00
H138   H     0.73045   0.02494   0.54744   0.00000  Uiso   1.00
H139   H     0.75499   0.95563   0.21038   0.00000  Uiso   1.00
C140   C     0.27688   0.51033   0.54705   0.00000  Uiso   1.00
C141   C     0.28992   0.49125   0.61036   0.00000  Uiso   1.00
N142   N     0.31776   0.44650   0.61664   0.00000  Uiso   1.00
C143   C     0.33317   0.41979   0.56241   0.00000  Uiso   1.00
C144   C     0.31836   0.43697   0.49846   0.00000  Uiso   1.00
N145   N     0.29083   0.48246   0.49237   0.00000  Uiso   1.00
N146   N     0.25107   0.55688   0.54153   0.00000  Uiso   1.00
C147   C     0.23664   0.58428   0.59631   0.00000  Uiso   1.00
C148   C     0.24743   0.56333   0.65940   0.00000  Uiso   1.00
N149   N     0.27389   0.51723   0.66461   0.00000  Uiso   1.00
H150   H     0.35831   0.38672   0.56970   0.00000  Uiso   1.00
H151   H     0.21335   0.61927   0.59005   0.00000  Uiso   1.00
C152   C     0.25811   0.56074   0.06433   0.00000  Uiso   1.00
C153   C     0.21763   0.54246   0.11062   0.00000  Uiso   1.00
N154   N     0.16276   0.54986   0.09850   0.00000  Uiso   1.00
C155   C     0.14629   0.57385   1.04199   0.00000  Uiso   1.00
C156   C     0.18648   0.59154   0.99506   0.00000  Uiso   1.00
N157   N     0.24156   0.58428   0.00752   0.00000  Uiso   1.00
N158   N     0.31243   0.55152   0.07511   0.00000  Uiso   1.00
C159   C     0.32810   0.52468   0.12978   0.00000  Uiso   1.00
C160   C     0.28779   0.50607   0.17586   0.00000  Uiso   1.00
N161   N     0.23314   0.51508   0.16522   0.00000  Uiso   1.00
H162   H     0.10167   0.57750   1.03291   0.00000  Uiso   1.00
H163   H     0.37113   0.51592   0.13591   0.00000  Uiso   1.00
C164   C     0.13798   0.24095   0.44992   0.00000  Uiso   1.00
C165   C     0.12421   0.24959   0.51518   0.00000  Uiso   1.00
N166   N     0.16712   0.26502   0.56486   0.00000  Uiso   1.00
C167   C     0.22351   0.27253   0.55243   0.00000  Uiso   1.00
C168   C     0.23795   0.26468   0.48713   0.00000  Uiso   1.00
N169   N     0.19457   0.24925   0.43715   0.00000  Uiso   1.00
N170   N     0.09452   0.22335   0.40083   0.00000  Uiso   1.00
C171   C     0.03798   0.21344   0.41433   0.00000  Uiso   1.00
C172   C     0.02428   0.22243   0.47969   0.00000  Uiso   1.00
N173   N     0.06800   0.24021   0.52835   0.00000  Uiso   1.00
H174   H     0.25676   0.28531   0.59311   0.00000  Uiso   1.00
H175   H     1.00420   0.19786   0.37480   0.00000  Uiso   1.00
C176   C     0.06077   0.85556   0.71640   0.00000  Uiso   1.00
C177   C     0.06918   0.85735   0.78584   0.00000  Uiso   1.00
N178   N     1.07303   0.90868   0.82137   0.00000  Uiso   1.00
C179   C     1.06631   0.95796   0.79082   0.00000  Uiso   1.00
C180   C     0.05359   0.95559   0.72155   0.00000  Uiso   1.00
N181   N     0.05232   0.90441   0.68587   0.00000  Uiso   1.00
N182   N     0.05706   0.80385   0.68117   0.00000  Uiso   1.00
C183   C     0.06056   0.75378   0.71245   0.00000  Uiso   1.00
C184   C     0.06592   0.75508   0.78219   0.00000  Uiso   1.00
N185   N     0.07085   0.80726   0.81690   0.00000  Uiso   1.00
H186   H     1.06672   0.99743   0.82087   0.00000  Uiso   1.00
H187   H     0.05759   0.71323   0.68336   0.00000  Uiso   1.00
C188   C     1.05190   0.35559   0.70909   0.00000  Uiso   1.00
C189   C    -0.00305   0.33899   0.67532   0.00000  Uiso   1.00
N190   N    -0.03636   0.37957   0.66601   0.00000  Uiso   1.00
C191   C    -0.01715   0.43609   0.68979   0.00000  Uiso   1.00
C192   C     0.03690   0.45224   0.72623   0.00000  Uiso   1.00
N193   N     1.07040   0.41148   0.73438   0.00000  Uiso   1.00
N194   N     1.08559   0.31501   0.71652   0.00000  Uiso   1.00
C195   C     1.06584   0.25819   0.69322   0.00000  Uiso   1.00
C196   C     1.00937   0.24086   0.66267   0.00000  Uiso   1.00
N197   N    -0.02312   0.28242   0.65422   0.00000  Uiso   1.00
H198   H    -0.04383   0.46788   0.68082   0.00000  Uiso   1.00
H199   H     1.09267   0.22645   0.70123   0.00000  Uiso   1.00
C200   C     0.84184   0.72634   1.07261   0.00000  Uiso   1.00
C201   C     0.88172   0.77000   0.04488   0.00000  Uiso   1.00
N202   N     0.86639   0.82027   0.02716   0.00000  Uiso   1.00
C203   C     0.81288   0.82919   0.03579   0.00000  Uiso   1.00
C204   C     0.77280   0.78641   0.06432   0.00000  Uiso   1.00
N205   N     0.78813   0.73570   0.08284   0.00000  Uiso   1.00
N206   N     0.85721   0.67484   1.08682   0.00000  Uiso   1.00
C207   C     0.91018   0.66506   1.07400   0.00000  Uiso   1.00
C208   C     0.95000   0.70921   1.04681   0.00000  Uiso   1.00
N209   N     0.93450   0.76059   0.03337   0.00000  Uiso   1.00
H210   H     0.80190   0.86994   0.02118   0.00000  Uiso   1.00
H211   H     0.92085   0.62319   1.08411   0.00000  Uiso   1.00
C212   C     0.50161   0.65579   0.27573   0.00000  Uiso   1.00
C213   C     0.45522   0.62164   0.23570   0.00000  Uiso   1.00
N214   N     0.41501   0.64724   0.20440   0.00000  Uiso   1.00
C215   C     0.41974   0.70611   0.21009   0.00000  Uiso   1.00
C216   C     0.46797   0.74119   0.24676   0.00000  Uiso   1.00
N217   N     0.50783   0.71505   0.27915   0.00000  Uiso   1.00
N218   N     0.53847   0.62883   0.31188   0.00000  Uiso   1.00
C219   C     0.53002   0.56908   0.31070   0.00000  Uiso   1.00
C220   C     0.48384   0.53503   0.26956   0.00000  Uiso   1.00
N221   N     0.44830   0.56285   0.23301   0.00000  Uiso   1.00
H222   H     0.38735   0.72544   0.18406   0.00000  Uiso   1.00
H223   H     0.55762   0.54856   0.34296   0.00000  Uiso   1.00
loop_
_geom_bond_atom_site_label_1
_geom_bond_atom_site_label_2
_geom_bond_distance
_geom_bond_site_symmetry_2
_ccdc_geom_bond_type
Yb0    O3      2.095   .     S
Yb0    O4      2.107   .     S
Yb0    O5      2.195   .     S
Yb0    O7      2.085   .     S
Yb0    O8      2.105   .     S
Yb0    O12     2.159   .     S
Yb1    O6      2.135   .     S
Yb1    O9      2.103   .     S
Yb1    O10     2.130   .     S
Yb1    O13     2.121   .     S
Yb1    O14     2.094   .     S
Yb1    O16     2.108   .     S
C2     O14     1.293   .     A
C2     O16     1.292   .     A
C2     C208    1.471   1_455 S
O3     C11     1.287   .     A
O4     C11     1.290   .     A
O5     C15     1.282   .     A
O6     C15     1.276   .     A
O7     C17     1.287   .     A
O8     C17     1.290   .     A
O9     C18     1.286   .     A
O10    C18     1.293   .     A
C11    C192    1.462   .     S
O12    C19     1.268   .     A
O13    C19     1.260   .     A
C15    C184    1.472   .     S
C17    C148    1.460   .     S
C18    C88     1.472   .     S
C19    C156    1.473   .     S
Yb20   O23     2.103   .     S
Yb20   O24     2.095   .     S
Yb20   O25     2.160   .     S
Yb20   O27     2.088   .     S
Yb20   O28     2.122   .     S
Yb20   O32     2.200   .     S
Yb21   O26     2.143   .     S
Yb21   O29     2.091   .     S
Yb21   O30     2.108   .     S
Yb21   O33     2.161   .     S
Yb21   O34     2.099   .     S
Yb21   O36     2.085   1_565 S
C22    O36     1.291   .     A
C22    C100    1.468   .     S
C22    O34     1.296   1_545 A
O23    C31     1.288   .     A
O24    C31     1.289   .     A
O25    C35     1.271   .     A
O26    C35     1.272   .     A
O27    C37     1.287   .     A
O28    C37     1.293   .     A
O29    C38     1.285   .     A
O30    C38     1.296   .     A
C31    C124    1.456   .     S
O32    C39     1.278   .     A
O33    C39     1.266   .     A
O34    C22     1.296   1_565 A
C35    C136    1.471   .     S
O36    Yb21    2.085   1_545 S
C37    C204    1.469   .     S
C38    C216    1.467   .     S
C39    C84     1.483   .     S
Yb40   O43     2.118   .     S
Yb40   O45     2.207   .     S
Yb40   O52     2.206   .     S
Yb40   O44     2.104   1_545 S
Yb40   O47     2.102   1_545 S
Yb40   O48     2.115   1_655 S
Yb41   O46     2.106   .     S
Yb41   O49     2.108   .     S
Yb41   O50     2.124   .     S
Yb41   O53     2.117   .     S
Yb41   O54     2.103   .     S
Yb41   O56     2.082   .     S
C42    O54     1.295   .     A
C42    O56     1.292   .     A
C42    C108    1.469   .     S
O43    C51     1.285   .     A
O44    Yb40    2.104   1_565 S
O44    C51     1.287   1_565 A
O45    C55     1.277   .     A
O46    C55     1.259   .     A
O47    C57     1.288   .     A
O47    Yb40    2.102   1_565 S
O48    Yb40    2.115   1_455 S
O48    C57     1.289   1_445 A
O49    C58     1.287   .     A
O50    C58     1.294   .     A
C51    C120    1.469   .     S
C51    O44     1.287   1_545 A
O52    C59     1.280   .     A
O53    C59     1.256   .     A
C55    C132    1.473   .     S
C57    O48     1.289   1_665 A
C57    C180    1.475   1_655 S
C58    C172    1.470   1_655 S
C59    C196    1.475   .     S
Yb60   O63     2.111   .     S
Yb60   O64     2.085   .     S
Yb60   O65     2.167   .     S
Yb60   O67     2.105   .     S
Yb60   O68     2.108   .     S
Yb60   O72     2.178   .     S
Yb61   O66     2.118   .     S
Yb61   O69     2.117   .     S
Yb61   O70     2.102   .     S
Yb61   O73     2.135   .     S
Yb61   O74     2.111   .     S
Yb61   O76     2.077   .     S
C62    O74     1.294   .     A
C62    O76     1.288   .     A
C62    C112    1.461   .     S
O63    C71     1.291   .     A
O64    C71     1.288   .     A
O65    C75     1.269   .     A
O66    C75     1.262   .     A
O67    C77     1.286   .     A
O68    C77     1.288   .     A
O69    C78     1.290   .     A
O70    C78     1.293   .     A
C71    C220    1.464   .     S
O72    C79     1.278   .     A
O73    C79     1.263   .     A
C75    C96     1.470   .     S
C77    C160    1.462   .     S
C78    C168    1.479   .     S
C79    C144    1.471   .     S
C80    N85     1.356   .     A
C80    N86     1.358   .     A
C80    C81     1.401   1_554 A
C81    N82     1.363   .     A
C81    N89     1.364   .     A
C81    C80     1.401   1_556 A
N82    C83     1.368   .     A
C83    H90     1.082   .     S
C83    C84     1.407   1_556 A
C84    N85     1.364   .     A
C84    C83     1.407   1_554 A
N86    C87     1.359   .     A
C87    H91     1.083   .     S
C87    C88     1.402   1_554 A
C88    N89     1.367   .     A
C88    C87     1.402   1_556 A
C92    C93     1.401   .     A
C92    N97     1.354   .     A
C92    N98     1.358   .     A
C93    N94     1.359   .     A
C93    N101    1.357   .     A
N94    C95     1.362   .     A
C95    C96     1.405   .     A
C95    H102    1.083   .     S
C96    N97     1.360   .     A
N98    C99     1.360   .     A
C99    C100    1.406   .     A
C99    H103    1.083   .     S
C100   N101    1.363   .     A
C104   C105    1.404   .     A
C104   N109    1.355   .     A
C104   N110    1.356   .     A
C105   N106    1.359   .     A
C105   N113    1.360   .     A
N106   C107    1.363   .     A
C107   C108    1.407   .     A
C107   H114    1.082   .     S
C108   N109    1.360   .     A
N110   C111    1.358   .     A
C111   C112    1.403   .     A
C111   H115    1.083   .     S
C112   N113    1.363   .     A
C116   C117    1.401   .     A
C116   N121    1.362   .     A
C116   N122    1.364   1_545 A
C117   N118    1.354   .     A
C117   N125    1.349   .     A
N118   C119    1.355   .     A
C119   C120    1.406   .     A
C119   H126    1.082   .     S
C120   N121    1.367   .     A
N122   C123    1.367   .     A
N122   C116    1.364   1_565 A
C123   H127    1.083   .     S
C123   C124    1.403   1_556 A
C124   C123    1.403   1_554 A
C124   N125    1.357   1_564 A
N125   C124    1.357   1_546 A
C128   N133    1.368   .     A
C128   N134    1.366   .     A
C128   C129    1.401   1_545 A
C129   N130    1.349   .     A
C129   N137    1.344   .     A
C129   C128    1.401   1_565 A
N130   C131    1.349   1_565 A
C131   C132    1.406   .     A
C131   H138    1.083   .     S
C131   N130    1.349   1_545 A
C132   N133    1.370   .     A
N134   C135    1.372   1_545 A
C135   C136    1.408   .     A
C135   H139    1.081   .     S
C135   N134    1.372   1_565 A
C136   N137    1.355   .     A
C140   C141    1.405   .     A
C140   N145    1.360   .     A
C140   N146    1.358   .     A
C141   N142    1.352   .     A
C141   N149    1.353   .     A
N142   C143    1.354   .     A
C143   C144    1.409   .     A
C143   H150    1.077   .     S
C144   N145    1.362   .     A
N146   C147    1.361   .     A
C147   C148    1.408   .     A
C147   H151    1.083   .     S
C148   N149    1.358   .     A
C152   C153    1.409   .     A
C152   N157    1.358   .     A
C152   N158    1.354   .     A
C153   N154    1.354   .     A
C153   N161    1.361   .     A
N154   C155    1.358   1_554 A
C155   C156    1.412   .     A
C155   H162    1.082   .     S
C155   N154    1.358   1_556 A
C156   N157    1.359   1_556 A
N157   C156    1.359   1_554 A
N158   C159    1.356   .     A
C159   C160    1.405   .     A
C159   H163    1.081   .     S
C160   N161    1.359   .     A
C164   C165    1.402   .     A
C164   N169    1.364   .     A
C164   N170    1.361   .     A
C165   N166    1.356   .     A
C165   N173    1.357   .     A
N166   C167    1.359   .     A
C167   C168    1.406   .     A
C167   H174    1.082   .     S
C168   N169    1.367   .     A
N170   C171    1.366   .     A
C171   C172    1.405   .     A
C171   H175    1.082   1_455 S
C172   N173    1.360   .     A
C172   C58     1.470   1_455 S
H175   C171    1.082   1_655 S
C176   C177    1.401   .     A
C176   N181    1.361   .     A
C176   N182    1.362   .     A
C177   N185    1.355   .     A
C177   N178    1.357   1_455 A
N178   C179    1.359   .     A
N178   C177    1.357   1_655 A
C179   H186    1.083   .     S
C179   C180    1.407   1_655 A
C180   N181    1.367   .     A
C180   C179    1.407   1_455 A
C180   C57     1.475   1_455 S
N182   C183    1.365   .     A
C183   C184    1.406   .     A
C183   H187    1.082   .     S
C184   N185    1.362   .     A
C188   N193    1.355   .     A
C188   N194    1.366   .     A
C188   C189    1.397   1_655 A
C189   N190    1.363   .     A
C189   N197    1.349   .     A
C189   C188    1.397   1_455 A
N190   C191    1.360   .     A
C191   C192    1.401   .     A
C191   H198    1.083   .     S
C192   N193    1.368   1_455 A
N193   C192    1.368   1_655 A
N194   C195    1.365   .     A
C195   C196    1.404   .     A
C195   H199    1.082   .     S
C196   N197    1.367   1_655 A
N197   C196    1.367   1_455 A
C200   N206    1.362   .     A
C200   C201    1.407   1_556 A
C200   N205    1.368   1_556 A
C201   N202    1.352   .     A
C201   N209    1.353   .     A
C201   C200    1.407   1_554 A
N202   C203    1.353   .     A
C203   C204    1.405   .     A
C203   H210    1.083   .     S
C204   N205    1.366   .     A
N205   C200    1.368   1_554 A
N206   C207    1.367   .     A
C207   C208    1.408   .     A
C207   H211    1.082   .     S
C208   N209    1.357   1_556 A
C208   C2      1.471   1_655 S
N209   C208    1.357   1_554 A
C212   C213    1.397   .     A
C212   N217    1.360   .     A
C212   N218    1.364   .     A
C213   N214    1.356   .     A
C213   N221    1.347   .     A
N214   C215    1.356   .     A
C215   C216    1.402   .     A
C215   H222    1.082   .     S
C216   N217    1.367   .     A
N218   C219    1.367   .     A
C219   C220    1.405   .     A
C219   H223    1.082   .     S
C220   N221    1.359   .     A
