data_lcy+N144+E15
_audit_creation_date              2025-01-21
_audit_creation_method            'Materials Studio'
_symmetry_space_group_name_H-M    'P1'
_symmetry_Int_Tables_number       1
_symmetry_cell_setting            triclinic
loop_
_symmetry_equiv_pos_as_xyz
  x,y,z
_cell_length_a                    17.7875
_cell_length_b                    16.7182
_cell_length_c                    14.4425
_cell_angle_alpha                 86.5094
_cell_angle_beta                  91.4483
_cell_angle_gamma                 78.3583
loop_
_atom_site_label
_atom_site_type_symbol
_atom_site_fract_x
_atom_site_fract_y
_atom_site_fract_z
_atom_site_U_iso_or_equiv
_atom_site_adp_type
_atom_site_occupancy
C0     C     0.34201   0.60819   0.92197   0.00000  Uiso   1.00
Er1    Er    0.06536   0.65148   0.75634   0.00000  Uiso   1.00
Er2    Er    0.18201   0.65466   0.82120   0.00000  Uiso   1.00
C3     C     0.06689   0.64497   0.96718   0.00000  Uiso   1.00
O4     O     0.21426   0.52407   0.83255   0.00000  Uiso   1.00
C5     C     0.08670   0.82471   0.77934   0.00000  Uiso   1.00
C6     C     0.18613   0.64783   0.61206   0.00000  Uiso   1.00
C7     C    -0.08100   0.64186   0.76814   0.00000  Uiso   1.00
O8     O     0.32110   0.54578  -0.05237   0.00000  Uiso   1.00
O9     O     0.29221   0.67470   0.87812   0.00000  Uiso   1.00
O10    O     0.22755   0.65699   0.68200   0.00000  Uiso   1.00
O11    O     0.11672   0.64327   0.62233   0.00000  Uiso   1.00
O12    O     0.14976   0.78588   0.81630   0.00000  Uiso   1.00
O13    O     0.04057   0.78600   0.74015   0.00000  Uiso   1.00
C14    C     0.16094   0.48440   0.83101   0.00000  Uiso   1.00
O15    O     0.09557   0.51757   0.79226   0.00000  Uiso   1.00
O16    O     0.13796   0.64520   0.96080   0.00000  Uiso   1.00
O17    O     0.02277   0.65730   0.89454   0.00000  Uiso   1.00
O18    O    -0.04591   0.63826   0.69351   0.00000  Uiso   1.00
O19    O     0.96049   0.65668   0.83503   0.00000  Uiso   1.00
C20    C     0.77099   0.91182   0.35498   0.00000  Uiso   1.00
Er21   Er    0.69133   0.75657   0.10607   0.00000  Uiso   1.00
Er22   Er    0.72857   0.79178   0.23828   0.00000  Uiso   1.00
C23    C     0.74917   0.90158   1.06226   0.00000  Uiso   1.00
O24    O     0.62064   0.87233   0.26265   0.00000  Uiso   1.00
C25    C     0.85194   0.67054   0.15299   0.00000  Uiso   1.00
C26    C     0.65975   0.64548   0.26900   0.00000  Uiso   1.00
C27    C     0.56590   0.71449   1.01571   0.00000  Uiso   1.00
O28    O     0.70940  -0.04745   0.37479   0.00000  Uiso   1.00
O29    O     0.78225   0.82762   0.36407   0.00000  Uiso   1.00
O30    O     0.69739   0.68678   0.31664   0.00000  Uiso   1.00
O31    O     0.64469   0.66700   0.18489   0.00000  Uiso   1.00
O32    O     0.83950   0.71770   0.21801   0.00000  Uiso   1.00
O33    O     0.79747   0.66700   0.09486   0.00000  Uiso   1.00
C34    C     0.57518   0.89366   0.19314   0.00000  Uiso   1.00
O35    O     0.58735   0.85357   0.12048   0.00000  Uiso   1.00
O36    O     0.75328   0.89680   0.15105   0.00000  Uiso   1.00
O37    O     0.73530   0.84230   1.02012   0.00000  Uiso   1.00
O38    O     0.63288   0.71570  -0.01131   0.00000  Uiso   1.00
O39    O     0.63274   0.71586   0.98925   0.00000  Uiso   1.00
C40    C     0.86154   0.40137   0.84593   0.00000  Uiso   1.00
Er41   Er    0.81227   0.18186   0.63158   0.00000  Uiso   1.00
Er42   Er    0.81812   0.26019   0.75065   0.00000  Uiso   1.00
C43    C     0.95204   0.11452   0.75028   0.00000  Uiso   1.00
O44    O     0.88042   0.33334   0.66247   0.00000  Uiso   1.00
C45    C     0.74963   0.11926   0.81202   0.00000  Uiso   1.00
C46    C     0.66507   0.30398   0.64227   0.00000  Uiso   1.00
C47    C     0.86075   0.07385   0.51249   0.00000  Uiso   1.00
O48    O    -0.06923   0.38015   0.84048   0.00000  Uiso   1.00
O49    O     0.81776   0.34272   0.86613   0.00000  Uiso   1.00
O50    O     0.69961   0.32810   0.71053   0.00000  Uiso   1.00
O51    O     0.70301   0.25419   0.59065   0.00000  Uiso   1.00
O52    O     0.76459   0.18498   0.83932   0.00000  Uiso   1.00
O53    O     0.76016   0.10109   0.72743   0.00000  Uiso   1.00
C54    C     0.90230   0.31159   0.58306   0.00000  Uiso   1.00
O55    O     0.87303   0.25776   0.54565   0.00000  Uiso   1.00
O56    O     0.92861   0.17763   0.79618   0.00000  Uiso   1.00
O57    O     0.91987   1.10682   0.67326   0.00000  Uiso   1.00
O58    O     0.79358   0.11586   0.51172   0.00000  Uiso   1.00
O59    O     0.90035   1.08118   0.58424   0.00000  Uiso   1.00
C60    C     0.16909   0.30569   0.47319   0.00000  Uiso   1.00
Er61   Er    0.38990   0.35954   0.25980   0.00000  Uiso   1.00
Er62   Er    0.29373   0.30502   0.33180   0.00000  Uiso   1.00
C63    C     0.42063   0.31220   0.47109   0.00000  Uiso   1.00
O64    O     0.24669   0.42681   0.37254   0.00000  Uiso   1.00
C65    C     0.41317   0.17318   0.24946   0.00000  Uiso   1.00
C66    C     0.26098   0.34910   0.12249   0.00000  Uiso   1.00
C67    C     0.51543   0.42006   0.28249   0.00000  Uiso   1.00
O68    O     0.21926   0.32332   0.52218   0.00000  Uiso   1.00
O69    O     0.18985   0.26584   0.39223   0.00000  Uiso   1.00
O70    O     0.23021   0.32663   0.19603   0.00000  Uiso   1.00
O71    O     0.32670   0.36766   0.12845   0.00000  Uiso   1.00
O72    O     0.34885   0.18436   0.28964   0.00000  Uiso   1.00
O73    O     0.44683   0.23365   0.23302   0.00000  Uiso   1.00
C74    C     0.27630   0.48778   0.35004   0.00000  Uiso   1.00
O75    O     0.32969   0.48125   0.29229   0.00000  Uiso   1.00
O76    O     0.35939   0.28406   0.46615   0.00000  Uiso   1.00
O77    O     0.44418   0.34471   0.39816   0.00000  Uiso   1.00
O78    O     0.48078   0.42052   0.20467   0.00000  Uiso   1.00
O79    O     0.48752   0.37983   0.34530   0.00000  Uiso   1.00
N80    N     0.47918   0.58610   0.88823   0.00000  Uiso   1.00
N81    N     0.53578   0.62307   0.90765   0.00000  Uiso   1.00
C82    C     0.51309   0.67782   0.96751   0.00000  Uiso   1.00
C83    C     0.43859   0.67780   0.99075   0.00000  Uiso   1.00
C84    C     0.41963   0.61730   0.93960   0.00000  Uiso   1.00
H85    H     0.40253   0.71728   1.03606   0.00000  Uiso   1.00
H86    H     0.48138   0.54185   0.83991   0.00000  Uiso   1.00
H87    H     0.58980   0.61187   0.87896   0.00000  Uiso   1.00
N88    N     0.45110  -0.01588   0.13471   0.00000  Uiso   1.00
N89    N     0.41015   0.05758   0.14860   0.00000  Uiso   1.00
C90    C     0.44473   0.09092   0.21640   0.00000  Uiso   1.00
C91    C     0.51088   0.03487   0.24819   0.00000  Uiso   1.00
C92    C     0.51251  -0.03254   0.19426   0.00000  Uiso   1.00
H93    H     0.55286   0.04284   0.30063   0.00000  Uiso   1.00
H94    H     0.43699  -0.05370   0.08417   0.00000  Uiso   1.00
H95    H     0.35982   0.08518   0.11065   0.00000  Uiso   1.00
N96    N     0.45710   0.34231   0.63466   0.00000  Uiso   1.00
N97    N     0.52291   0.34991   0.67628   0.00000  Uiso   1.00
C98    C     0.58120   0.32261   0.62063   0.00000  Uiso   1.00
C99    C     0.55068   0.29380   0.54356   0.00000  Uiso   1.00
C100   C     0.47255   0.30673   0.55366   0.00000  Uiso   1.00
H101   H     0.58146   0.26920   0.48440   0.00000  Uiso   1.00
H102   H     0.40269   0.36535   0.65865   0.00000  Uiso   1.00
H103   H     0.52731   0.37305   0.74115   0.00000  Uiso   1.00
N104   N     0.69332   0.04719   1.02779   0.00000  Uiso   1.00
N105   N     0.68195   0.09936   0.95376   0.00000  Uiso   1.00
C106   C     0.72405   0.06646   0.88412   0.00000  Uiso   1.00
C107   C     0.76403   0.98876   0.91605   0.00000  Uiso   1.00
C108   C     0.74347   0.97926   1.00787   0.00000  Uiso   1.00
H109   H     0.80581   0.94652   0.87951   0.00000  Uiso   1.00
H110   H     0.66501   0.05740   1.08969   0.00000  Uiso   1.00
H111   H     0.64852   0.15882   0.95237   0.00000  Uiso   1.00
N112   N     0.90664   0.90653   0.38114   0.00000  Uiso   1.00
N113   N     0.93355   0.95249   0.44035   0.00000  Uiso   1.00
C114   C     0.88600   1.02631   0.43501   0.00000  Uiso   1.00
C115   C     0.83231   0.02972   0.36495   0.00000  Uiso   1.00
C116   C     0.83835   0.94907   0.34504   0.00000  Uiso   1.00
H117   H     0.78031   0.07590   0.35655   0.00000  Uiso   1.00
H118   H     0.92366   0.84293   0.38512   0.00000  Uiso   1.00
H119   H     0.97550   0.92956   0.49252   0.00000  Uiso   1.00
N120   N     0.19395   0.67871   0.44117   0.00000  Uiso   1.00
N121   N     0.21737   0.63537   0.36955   0.00000  Uiso   1.00
C122   C     0.25538   0.56087   0.40256   0.00000  Uiso   1.00
C123   C     0.25850   0.55756   0.49852   0.00000  Uiso   1.00
C124   C     0.21899   0.63330   0.52077   0.00000  Uiso   1.00
H125   H     0.27817   0.50384   0.54523   0.00000  Uiso   1.00
H126   H     0.15548   0.73536   0.43553   0.00000  Uiso   1.00
H127   H     0.20135   0.65405   0.30014   0.00000  Uiso   1.00
N128   N     0.25866   0.30863  -0.03997   0.00000  Uiso   1.00
N129   N     0.22912   0.34338  -0.12112   0.00000  Uiso   1.00
C130   C     0.17291   0.40862  -0.10765   0.00000  Uiso   1.00
C131   C     0.16739   0.41423  -0.01168   0.00000  Uiso   1.00
C132   C     0.22391   0.35103   0.02872   0.00000  Uiso   1.00
H133   H     0.13952   0.46752   0.02252   0.00000  Uiso   1.00
H134   H     0.30947   0.26406  -0.03196   0.00000  Uiso   1.00
H135   H     0.25469   0.32958  -0.18432   0.00000  Uiso   1.00
N136   N     0.99839   0.40034   0.58057   0.00000  Uiso   1.00
N137   N     0.06899   0.39676   0.55392   0.00000  Uiso   1.00
C138   C     0.08831   0.33439   0.49868   0.00000  Uiso   1.00
C139   C     0.02486   0.29745   0.48812   0.00000  Uiso   1.00
C140   C     0.96859   0.34122   0.54274   0.00000  Uiso   1.00
H141   H     0.02392   0.24059   0.45607   0.00000  Uiso   1.00
H142   H     0.97508   0.43587   0.63321   0.00000  Uiso   1.00
H143   H     0.10520   0.43390   0.57802   0.00000  Uiso   1.00
N144   N     0.11428   0.95884   0.82560   0.00000  Uiso   1.00
N145   N     0.07824   1.03659   0.82236   0.00000  Uiso   1.00
C146   C     1.00770   1.04145   0.78440   0.00000  Uiso   1.00
C147   C     0.99937   0.96427   0.76122   0.00000  Uiso   1.00
C148   C     0.06769   0.91387   0.78755   0.00000  Uiso   1.00
H149   H     0.95024   0.94772   0.72716   0.00000  Uiso   1.00
H150   H     0.17033   0.93736   0.85166   0.00000  Uiso   1.00
H151   H     0.10215   0.08519   0.84273   0.00000  Uiso   1.00
N152   N     0.80226   0.53986   0.89222   0.00000  Uiso   1.00
N153   N     0.81416   0.61318   0.86430   0.00000  Uiso   1.00
C154   C     0.84947   0.60872   0.78289   0.00000  Uiso   1.00
C155   C     0.85018   0.53188   0.75260   0.00000  Uiso   1.00
C156   C     0.82590   0.48786   0.82580   0.00000  Uiso   1.00
H157   H    -0.11507   0.50634   0.69812   0.00000  Uiso   1.00
H158   H     0.78638   0.52390   0.95906   0.00000  Uiso   1.00
H159   H     0.80827   0.66154   0.90820   0.00000  Uiso   1.00
N160   N     1.05271   0.63946   0.13993   0.00000  Uiso   1.00
N161   N     0.99230   0.64259   0.19224   0.00000  Uiso   1.00
C162   C     0.93165   0.63070   0.13921   0.00000  Uiso   1.00
C163   C     0.95621   0.61388   1.05259   0.00000  Uiso   1.00
C164   C     1.03070   0.62619   1.05326   0.00000  Uiso   1.00
H165   H     0.92040   0.60969   0.99245   0.00000  Uiso   1.00
H166   H     0.10495   0.65359   0.16130   0.00000  Uiso   1.00
H167   H     0.99027   0.66191   0.26000   0.00000  Uiso   1.00
N168   N     0.60670   0.47096   0.38862   0.00000  Uiso   1.00
N169   N     0.64274   0.53324   0.38769   0.00000  Uiso   1.00
C170   C     0.63264   0.57164   0.30238   0.00000  Uiso   1.00
C171   C     0.58997   0.53101   0.24654   0.00000  Uiso   1.00
C172   C     0.57419   0.46794   0.30342   0.00000  Uiso   1.00
H173   H     0.56900   0.54842   0.17566   0.00000  Uiso   1.00
H174   H     0.60185   0.43348   0.44786   0.00000  Uiso   1.00
H175   H     0.67155   0.55005   0.44507   0.00000  Uiso   1.00
loop_
_geom_bond_atom_site_label_1
_geom_bond_atom_site_label_2
_geom_bond_distance
_geom_bond_site_symmetry_2
_ccdc_geom_bond_type
C0     O9      1.382   .     S
C0     C84     1.437   .     S
C0     O8      1.217   1_556 D
Er1    O11     2.161   .     S
Er1    O13     2.199   .     S
Er1    O15     2.220   .     S
Er1    O17     2.154   .     S
Er1    O18     2.213   .     S
Er1    O19     2.198   1_455 S
Er2    O4      2.137   .     S
Er2    O9      2.202   .     S
Er2    O10     2.187   .     S
Er2    O12     2.149   .     S
Er2    O16     2.190   .     S
C3     O16     1.271   .     A
C3     O17     1.275   .     A
C3     C164    1.460   1_455 S
O4     C14     1.263   .     A
C5     O12     1.264   .     A
C5     O13     1.284   .     A
C5     C148    1.473   .     S
C6     O10     1.270   .     A
C6     O11     1.264   .     A
C6     C124    1.470   .     S
C7     O18     1.258   .     A
C7     O19     1.267   1_455 A
C7     C154    1.469   1_455 S
O8     C0      1.217   1_554 D
C14    O15     1.281   .     A
C14    C130    1.477   1_556 S
O19    Er1     2.198   1_655 S
O19    C7      1.267   1_655 A
C20    O29     1.379   .     S
C20    C116    1.464   .     S
C20    O28     1.218   1_565 D
Er21   O31     2.137   .     S
Er21   O33     2.176   .     S
Er21   O35     2.224   .     S
Er21   O38     2.182   .     S
Er21   O37     2.119   1_554 S
Er21   O39     2.176   1_554 S
Er22   O24     2.161   .     S
Er22   O29     2.202   .     S
Er22   O30     2.203   .     S
Er22   O32     2.145   .     S
Er22   O36     2.221   .     S
C23    O37     1.256   .     A
C23    C108    1.460   .     S
C23    O36     1.279   1_556 A
O24    C34     1.260   .     A
C25    O32     1.258   .     A
C25    O33     1.279   .     A
C25    C162    1.464   .     S
C26    O30     1.273   .     A
C26    O31     1.252   .     A
C26    C170    1.473   .     S
C27    O39     1.262   .     A
C27    C82     1.412   .     S
C27    O38     1.267   1_556 A
O28    C20     1.218   1_545 D
C34    O35     1.279   .     A
C34    C92     1.488   1_565 S
O36    C23     1.279   1_554 A
O37    Er21    2.119   1_556 S
O38    C27     1.267   1_554 A
O39    Er21    2.176   1_556 S
C40    O49     1.392   .     S
C40    C156    1.465   .     S
C40    O48     1.217   1_655 D
Er41   O51     2.120   .     S
Er41   O53     2.223   .     S
Er41   O55     2.179   .     S
Er41   O58     2.162   .     S
Er41   O57     2.117   1_545 S
Er41   O59     2.210   1_545 S
Er42   O44     2.185   .     S
Er42   O49     2.228   .     S
Er42   O50     2.227   .     S
Er42   O52     2.116   .     S
Er42   O56     2.220   .     S
C43    O56     1.284   .     A
C43    O57     1.263   1_545 A
C43    C146    1.459   1_545 S
O44    C54     1.271   .     A
C45    O52     1.264   .     A
C45    O53     1.286   .     A
C45    C106    1.465   .     S
C46    O50     1.277   .     A
C46    O51     1.256   .     A
C46    C98     1.482   .     S
C47    O58     1.257   .     A
C47    O59     1.264   1_545 A
C47    C114    1.441   1_545 S
O48    C40     1.217   1_455 D
C54    O55     1.268   .     A
C54    C140    1.487   .     S
O57    Er41    2.117   1_565 S
O57    C43     1.263   1_565 A
O59    Er41    2.210   1_565 S
O59    C47     1.264   1_565 A
C60    O68     1.218   .     D
C60    O69     1.402   .     S
C60    C138    1.483   .     S
Er61   O71     2.163   .     S
Er61   O73     2.205   .     S
Er61   O75     2.184   .     S
Er61   O77     2.175   .     S
Er61   O78     2.218   .     S
Er61   O79     2.199   .     S
Er62   O64     2.162   .     S
Er62   O69     2.260   .     S
Er62   O70     2.211   .     S
Er62   O72     2.187   .     S
Er62   O76     2.211   .     S
C63    O76     1.273   .     A
C63    O77     1.275   .     A
C63    C100    1.477   .     S
O64    C74     1.268   .     A
C65    O72     1.281   .     A
C65    O73     1.288   .     A
C65    C90     1.489   .     S
C66    O70     1.278   .     A
C66    O71     1.271   .     A
C66    C132    1.487   .     S
C67    O78     1.267   .     A
C67    O79     1.267   .     A
C67    C172    1.475   .     S
C74    O75     1.272   .     A
C74    C122    1.466   .     S
N80    N81     1.316   .     A
N80    C84     1.345   .     A
N80    H86     1.043   .     S
N81    C82     1.309   .     A
N81    H87     1.043   .     S
C82    C83     1.375   .     A
C83    C84     1.378   .     A
C83    H85     1.085   .     S
N88    N89     1.325   .     A
N88    C92     1.346   .     A
N88    H94     1.052   .     S
N89    C90     1.350   .     A
N89    H95     1.045   .     S
C90    C91     1.396   .     A
C91    C92     1.404   .     A
C91    H93     1.083   .     S
C92    C34     1.488   1_545 S
N96    N97     1.335   .     A
N96    C100    1.354   .     A
N96    H102    1.043   .     S
N97    C98     1.351   .     A
N97    H103    1.042   .     S
C98    C99     1.381   .     A
C99    C100    1.376   .     A
C99    H101    1.084   .     S
N104   N105    1.322   .     A
N104   H110    1.043   .     S
N104   C108    1.346   1_545 A
N105   C106    1.347   .     A
N105   H111    1.049   .     S
C106   C107    1.394   1_545 A
C107   C108    1.393   .     A
C107   H109    1.087   .     S
C107   C106    1.394   1_565 A
C108   N104    1.346   1_565 A
N112   N113    1.326   .     A
N112   C116    1.352   .     A
N112   H118    1.043   .     S
N113   C114    1.345   .     A
N113   H119    1.045   .     S
C114   C115    1.364   1_565 A
C114   C47     1.441   1_565 S
C115   H117    1.078   .     S
C115   C114    1.364   1_545 A
C115   C116    1.379   1_545 A
C116   C115    1.379   1_565 A
N120   N121    1.326   .     A
N120   C124    1.352   .     A
N120   H126    1.048   .     S
N121   C122    1.344   .     A
N121   H127    1.046   .     S
C122   C123    1.383   .     A
C123   C124    1.379   .     A
C123   H125    1.082   .     S
N128   N129    1.323   .     A
N128   C132    1.345   .     A
N128   H134    1.048   .     S
N129   C130    1.350   .     A
N129   H135    1.048   .     S
C130   C131    1.399   .     A
C130   C14     1.477   1_554 S
C131   C132    1.391   .     A
C131   H133    1.082   .     S
N136   C140    1.349   .     A
N136   H142    1.036   .     S
N136   N137    1.314   1_655 A
N137   C138    1.346   .     A
N137   H143    1.048   .     S
N137   N136    1.314   1_455 A
C138   C139    1.401   .     A
C139   H141    1.085   .     S
C139   C140    1.405   1_455 A
C140   C139    1.405   1_655 A
N144   N145    1.326   .     A
N144   C148    1.354   .     A
N144   H150    1.041   .     S
N145   C146    1.342   1_455 A
N145   H151    1.044   1_565 S
C146   C147    1.388   .     A
C146   N145    1.342   1_655 A
C146   C43     1.459   1_565 S
C147   H149    1.084   .     S
C147   C148    1.362   1_655 A
C148   C147    1.362   1_455 A
H151   N145    1.044   1_545 S
N152   N153    1.326   .     A
N152   C156    1.352   .     A
N152   H158    1.047   .     S
N153   C154    1.346   .     A
N153   H159    1.048   .     S
C154   C155    1.380   .     A
C154   C7      1.469   1_655 S
C155   C156    1.379   .     A
C155   H157    1.069   1_655 S
H157   C155    1.069   1_455 S
N160   N161    1.323   .     A
N160   C164    1.347   1_554 A
N160   H166    1.048   1_655 S
N161   C162    1.361   .     A
N161   H167    1.048   .     S
C162   C163    1.362   1_554 A
C163   C164    1.381   .     A
C163   H165    1.078   .     S
C163   C162    1.362   1_556 A
C164   N160    1.347   1_556 A
C164   C3      1.460   1_655 S
H166   N160    1.048   1_455 S
N168   N169    1.328   .     A
N168   C172    1.354   .     A
N168   H174    1.045   .     S
N169   C170    1.345   .     A
N169   H175    1.046   .     S
C170   C171    1.390   .     A
C171   C172    1.375   .     A
C171   H173    1.083   .     S
