data_lcy+N205+E8
_audit_creation_date              2025-01-21
_audit_creation_method            'Materials Studio'
_symmetry_space_group_name_H-M    'P1'
_symmetry_Int_Tables_number       1
_symmetry_cell_setting            triclinic
loop_
_symmetry_equiv_pos_as_xyz
  x,y,z
_cell_length_a                    23.8381
_cell_length_b                    23.8895
_cell_length_c                    23.0159
_cell_angle_alpha                 116.4032
_cell_angle_beta                  93.3287
_cell_angle_gamma                 94.9430
loop_
_atom_site_label
_atom_site_type_symbol
_atom_site_fract_x
_atom_site_fract_y
_atom_site_fract_z
_atom_site_U_iso_or_equiv
_atom_site_adp_type
_atom_site_occupancy
Y0     Y     0.14912   0.56679   0.89271   0.00000  Uiso   1.00
Y1     Y     0.07793   0.68291   0.83258   0.00000  Uiso   1.00
C2     C    -0.01902   0.69477   0.88985   0.00000  Uiso   1.00
C3     C     0.04438   0.54460   0.80398   0.00000  Uiso   1.00
C4     C     0.18132   0.51734   0.97181   0.00000  Uiso   1.00
C5     C     0.19708   0.52261   0.77965   0.00000  Uiso   1.00
C6     C     0.18453   0.70153   0.93101   0.00000  Uiso   1.00
C7     C     0.08046   0.75980   0.77522   0.00000  Uiso   1.00
O8     O    -0.01614   0.66881   0.82945   0.00000  Uiso   1.00
O9     O     1.02928   0.71567   0.92248   0.00000  Uiso   1.00
O10    O     0.05751   0.56435   0.86457   0.00000  Uiso   1.00
O11    O     0.06331   0.57645   0.77544   0.00000  Uiso   1.00
O12    O     0.21260   0.55670   0.96181   0.00000  Uiso   1.00
O13    O     0.13219   0.50413   0.94193   0.00000  Uiso   1.00
O14    O     0.15373   0.49488   0.78887   0.00000  Uiso   1.00
O15    O     0.21644   0.57301   0.82939   0.00000  Uiso   1.00
O16    O     0.16839   0.70831   0.88123   0.00000  Uiso   1.00
O17    O     0.15129   0.67027   0.94962   0.00000  Uiso   1.00
O18    O     0.06794   0.70078   0.74369   0.00000  Uiso   1.00
O19    O     0.09360   0.77799   0.83513   0.00000  Uiso   1.00
Y20    Y     0.53500   0.85669   0.19672   0.00000  Uiso   1.00
Y21    Y     0.63330   0.89513   0.06957   0.00000  Uiso   1.00
C22    C     0.71571   0.82065   0.05492   0.00000  Uiso   1.00
C23    C     0.65079   0.92616   0.21468   0.00000  Uiso   1.00
C24    C     0.50428   0.78770   0.25837   0.00000  Uiso   1.00
C25    C     0.50230   0.97282   0.24020   0.00000  Uiso   1.00
C26    C     0.50637   0.82402   0.05445   0.00000  Uiso   1.00
C27    C     0.65422   0.94914  -0.00958   0.00000  Uiso   1.00
O28    O     0.71886   0.87685   0.09732   0.00000  Uiso   1.00
O29    O     0.66746   0.80023   0.02234   0.00000  Uiso   1.00
O30    O     0.62768   0.86980   0.19140   0.00000  Uiso   1.00
O31    O     0.65017   0.95432   0.17893   0.00000  Uiso   1.00
O32    O     0.46964   0.80393   0.22698   0.00000  Uiso   1.00
O33    O     0.55495   0.80780   0.25870   0.00000  Uiso   1.00
O34    O     0.54392   0.96004   0.26617   0.00000  Uiso   1.00
O35    O     0.47580   0.92489   0.19254   0.00000  Uiso   1.00
O36    O     0.53770   0.86751   0.04960   0.00000  Uiso   1.00
O37    O     0.52384   0.79851   0.08878   0.00000  Uiso   1.00
O38    O     0.66714   0.97745   0.05143   0.00000  Uiso   1.00
O39    O     0.62901   0.89466   0.97156   0.00000  Uiso   1.00
Y40    Y     0.93273   0.17053   0.53616   0.00000  Uiso   1.00
Y41    Y     0.87773   0.06945   0.68107   0.00000  Uiso   1.00
C42    C     0.94611  -0.02076   0.66133   0.00000  Uiso   1.00
C43    C     0.85517   0.05767   0.53699   0.00000  Uiso   1.00
C44    C     1.03736   0.18694   0.50744   0.00000  Uiso   1.00
C45    C     0.84917   0.23337   0.52414   0.00000  Uiso   1.00
C46    C     0.93526   0.19109   0.68136   0.00000  Uiso   1.00
C47    C     0.81245   0.06951   0.77374   0.00000  Uiso   1.00
O48    O     0.89738  -0.03096   0.63208   0.00000  Uiso   1.00
O49    O     0.96146   1.03705   0.69731   0.00000  Uiso   1.00
O50    O     0.90587   0.08455   0.54984   0.00000  Uiso   1.00
O51    O     0.83261   0.04714   0.58086   0.00000  Uiso   1.00
O52    O     1.01984   0.22195   0.56109   0.00000  Uiso   1.00
O53    O     0.99996   0.14356   0.46725   0.00000  Uiso   1.00
O54    O     0.85635   0.17927   0.48101   0.00000  Uiso   1.00
O55    O     0.88751   0.25699   0.57193   0.00000  Uiso   1.00
O56    O     0.91850   0.17149   0.72092   0.00000  Uiso   1.00
O57    O     0.92797   0.15253   0.62215   0.00000  Uiso   1.00
O58    O     0.79633   0.04083   0.71349   0.00000  Uiso   1.00
O59    O     0.86041   0.10083   0.78568   0.00000  Uiso   1.00
Y60    Y     0.44095   0.34556   0.46470   0.00000  Uiso   1.00
Y61    Y     0.35012   0.41424   0.32361   0.00000  Uiso   1.00
C62    C     0.42321   0.51462   0.34306   0.00000  Uiso   1.00
C63    C     0.36286   0.44263   0.47411   0.00000  Uiso   1.00
C64    C     0.54340   0.31417   0.48403   0.00000  Uiso   1.00
C65    C     0.35201   0.29668   0.49973   0.00000  Uiso   1.00
C66    C     0.40096   0.29906   0.31697   0.00000  Uiso   1.00
C67    C     0.27466   0.40743   0.22870   0.00000  Uiso   1.00
O68    O     0.43673   0.45925   0.31888   0.00000  Uiso   1.00
O69    O     0.37474   0.51781   0.36217   0.00000  Uiso   1.00
O70    O     0.41509   0.43557   0.46854   0.00000  Uiso   1.00
O71    O     0.32832   0.43224   0.42460   0.00000  Uiso   1.00
O72    O     0.50458   0.27818   0.44070   0.00000  Uiso   1.00
O73    O     0.52980   0.36866   0.51854   0.00000  Uiso   1.00
O74    O     0.36857   0.27053   0.44364   0.00000  Uiso   1.00
O75    O     0.38375   0.34610   0.53910   0.00000  Uiso   1.00
O76    O     0.36711   0.31317   0.28286   0.00000  Uiso   1.00
O77    O     0.42735   0.34412   0.36770   0.00000  Uiso   1.00
O78    O     0.26265   0.42384   0.28638   0.00000  Uiso   1.00
O79    O     0.32296   0.38980   0.21990   0.00000  Uiso   1.00
C80    C     0.35475   0.75686   0.01754   0.00000  Uiso   1.00
C81    C     0.33618   0.77149   0.96747   0.00000  Uiso   1.00
N82    N     0.37353   0.80299   0.94658   0.00000  Uiso   1.00
C83    C     0.42856   0.82043   0.97338   0.00000  Uiso   1.00
C84    C     0.44737   0.80537   0.02321   0.00000  Uiso   1.00
N85    N     0.40966   0.77383   0.04392   0.00000  Uiso   1.00
N86    N     0.31748   0.72652   0.03950   0.00000  Uiso   1.00
C87    C     0.26245   0.70960   0.01342   0.00000  Uiso   1.00
C88    C     0.24357   0.72298   0.96234   0.00000  Uiso   1.00
N89    N     0.28118   0.75392   0.94071   0.00000  Uiso   1.00
H90    H     0.45738   0.84542   0.95572   0.00000  Uiso   1.00
H91    H     0.23385   0.68546   0.03214   0.00000  Uiso   1.00
C92    C     0.46890   0.15986   0.29946   0.00000  Uiso   1.00
C93    C     0.42751   0.10957   0.25967   0.00000  Uiso   1.00
N94    N     0.37732   0.12210   0.23978   0.00000  Uiso   1.00
C95    C     0.36696   0.18261   0.25804   0.00000  Uiso   1.00
C96    C     0.40849   0.23293   0.29832   0.00000  Uiso   1.00
N97    N     0.45858   0.21982   0.31727   0.00000  Uiso   1.00
N98    N     0.51905   0.14811   0.31964   0.00000  Uiso   1.00
C99    C     0.52981   0.08829   0.30235   0.00000  Uiso   1.00
C100   C     0.48895   0.03753   0.26184   0.00000  Uiso   1.00
N101   N     0.43853   0.04931   0.24107   0.00000  Uiso   1.00
H102   H     0.32677   0.19138   0.24142   0.00000  Uiso   1.00
H103   H     0.57045   0.08051   0.31912   0.00000  Uiso   1.00
C104   C     0.69910   0.24501   0.49084   0.00000  Uiso   1.00
C105   C     0.69672   0.31030   0.52239   0.00000  Uiso   1.00
N106   N     0.74513   0.34995   0.55311   0.00000  Uiso   1.00
C107   C     0.79556   0.32711   0.55398   0.00000  Uiso   1.00
C108   C     0.79774   0.26184   0.52140   0.00000  Uiso   1.00
N109   N     0.74932   0.22260   0.49063   0.00000  Uiso   1.00
N110   N     0.65110   0.20475   0.46239   0.00000  Uiso   1.00
C111   C     0.60060   0.22669   0.46255   0.00000  Uiso   1.00
C112   C     0.59782   0.29197   0.49139   0.00000  Uiso   1.00
N113   N     0.64603   0.33264   0.52161   0.00000  Uiso   1.00
H114   H     0.83343   0.35939   0.57961   0.00000  Uiso   1.00
H115   H     0.56289   0.19323   0.44018   0.00000  Uiso   1.00
C116   C     0.71137   1.00597   0.85266   0.00000  Uiso   1.00
C117   C     0.73390   1.03872   0.91851   0.00000  Uiso   1.00
N118   N     0.77878   0.08405   0.93611   0.00000  Uiso   1.00
C119   C     0.80271   0.09743   0.89077   0.00000  Uiso   1.00
C120   C     0.78141   1.06337   0.82453   0.00000  Uiso   1.00
N121   N     0.73578   1.01866   0.80721   0.00000  Uiso   1.00
N122   N     0.66757   0.95942   0.83465   0.00000  Uiso   1.00
C123   C     0.64625   0.94289   0.87911   0.00000  Uiso   1.00
C124   C     0.67002   0.97392   0.94463   0.00000  Uiso   1.00
N125   N     0.71291   1.02191   0.96298   0.00000  Uiso   1.00
H126   H     0.83936   0.13268   0.90599   0.00000  Uiso   1.00
H127   H     0.61227   0.90443   0.86300   0.00000  Uiso   1.00
C128   C     0.73699   0.99790   0.40370   0.00000  Uiso   1.00
C129   C     0.76277   1.00570   0.35394   0.00000  Uiso   1.00
N130   N     0.81820   1.02945   0.36460   0.00000  Uiso   1.00
C131   C     0.84877   1.04653   0.42295   0.00000  Uiso   1.00
C132   C     0.82246   0.04159   0.47399   0.00000  Uiso   1.00
N133   N     0.76714   1.01638   0.46253   0.00000  Uiso   1.00
N134   N     0.68322   0.96883   0.39126   0.00000  Uiso   1.00
C135   C     0.65404   0.94713   0.33137   0.00000  Uiso   1.00
C136   C     0.67889   0.95658   0.28191   0.00000  Uiso   1.00
N137   N     0.73303   0.98557   0.29448   0.00000  Uiso   1.00
H138   H     0.89323   1.06385   0.42933   0.00000  Uiso   1.00
H139   H     0.61230   0.92158   0.32226   0.00000  Uiso   1.00
C140   C     0.26420   0.45939   0.59830   0.00000  Uiso   1.00
C141   C     0.29825   0.49958   0.65656   0.00000  Uiso   1.00
N142   N     0.35316   0.51828   0.65423   0.00000  Uiso   1.00
C143   C     0.37545   0.49906   0.59630   0.00000  Uiso   1.00
C144   C     0.34098   0.46049   0.53773   0.00000  Uiso   1.00
N145   N     0.28596   0.44162   0.54031   0.00000  Uiso   1.00
N146   N     0.20977   0.43916   0.60071   0.00000  Uiso   1.00
C147   C     0.18772   0.45773   0.65869   0.00000  Uiso   1.00
C148   C     0.22115   0.49944   0.71692   0.00000  Uiso   1.00
N149   N     0.27583   0.51941   0.71440   0.00000  Uiso   1.00
H150   H     0.41927   0.51495   0.59583   0.00000  Uiso   1.00
H151   H     0.14405   0.44137   0.65926   0.00000  Uiso   1.00
C152   C     0.19176   0.45535   0.09377   0.00000  Uiso   1.00
C153   C     0.24749   0.44031   0.08956   0.00000  Uiso   1.00
N154   N     0.27921   0.44937   0.04683   0.00000  Uiso   1.00
C155   C     0.25796   0.47334   0.00808   0.00000  Uiso   1.00
C156   C     0.20223   0.48824   0.01153   0.00000  Uiso   1.00
N157   N     0.16989   0.47850   0.05405   0.00000  Uiso   1.00
N158   N     0.16187   0.44986   0.14008   0.00000  Uiso   1.00
C159   C     0.18568   0.43109   0.18289   0.00000  Uiso   1.00
C160   C     0.24173   0.41671   0.17865   0.00000  Uiso   1.00
N161   N     0.27065   0.42118   0.13148   0.00000  Uiso   1.00
H162   H     0.28457   0.48122  -0.02483   0.00000  Uiso   1.00
H163   H     0.16170   0.42892   0.22056   0.00000  Uiso   1.00
C164   C     0.20650   0.21810   0.47435   0.00000  Uiso   1.00
C165   C     0.18885   0.24930   0.53673   0.00000  Uiso   1.00
N166   N     0.22613   0.29193   0.58701   0.00000  Uiso   1.00
C167   C     0.28037   0.30556   0.57755   0.00000  Uiso   1.00
C168   C     0.29780   0.27550   0.51474   0.00000  Uiso   1.00
N169   N     0.26039   0.23219   0.46474   0.00000  Uiso   1.00
N170   N     0.16893   0.17606   0.42392   0.00000  Uiso   1.00
C171   C     0.11411   0.16415   0.43296   0.00000  Uiso   1.00
C172   C     0.09613   0.19629   0.49511   0.00000  Uiso   1.00
N173   N     0.13417   0.23777   0.54557   0.00000  Uiso   1.00
H174   H     0.30881   0.34109   0.61812   0.00000  Uiso   1.00
H175   H     0.08481   0.13070   0.39202   0.00000  Uiso   1.00
C176   C     0.04397   0.89678   0.71657   0.00000  Uiso   1.00
C177   C     1.02073   0.83358   0.67859   0.00000  Uiso   1.00
N178   N     0.97880   0.81908   0.62984   0.00000  Uiso   1.00
C179   C     0.95747   0.86503   0.61898   0.00000  Uiso   1.00
C180   C     0.97812   0.92866   0.65974   0.00000  Uiso   1.00
N181   N     0.02186   0.94274   0.70667   0.00000  Uiso   1.00
N182   N     0.08419   0.91177   0.76704   0.00000  Uiso   1.00
C183   C     0.10067   0.86691   0.78303   0.00000  Uiso   1.00
C184   C     1.07499   0.80428   0.74777   0.00000  Uiso   1.00
N185   N     1.03642   0.78882   0.69531   0.00000  Uiso   1.00
H186   H     0.92241   0.85217   0.58152   0.00000  Uiso   1.00
H187   H     0.13134   0.88061   0.82506   0.00000  Uiso   1.00
C188   C     0.01696   0.37221   0.73142   0.00000  Uiso   1.00
C189   C     0.95816   0.36284   0.73299   0.00000  Uiso   1.00
N190   N     0.92821   0.41273   0.75087   0.00000  Uiso   1.00
C191   C     0.95456   0.47174   0.76852   0.00000  Uiso   1.00
C192   C     0.01347   0.48128   0.76799   0.00000  Uiso   1.00
N193   N     0.04311   0.43105   0.74948   0.00000  Uiso   1.00
N194   N     0.04742   0.32303   0.71544   0.00000  Uiso   1.00
C195   C     0.02178   0.26467   0.70086   0.00000  Uiso   1.00
C196   C     0.96310   0.25502   0.70237   0.00000  Uiso   1.00
N197   N     0.93238   0.30435   0.71828   0.00000  Uiso   1.00
H198   H     0.93024   0.51122   0.78584   0.00000  Uiso   1.00
H199   H     0.04680   0.22583   0.68696   0.00000  Uiso   1.00
C200   C     0.82084   0.72485   0.95897   0.00000  Uiso   1.00
C201   C     0.87039   0.75218   0.00274   0.00000  Uiso   1.00
N202   N     0.86626   0.79399   0.06544   0.00000  Uiso   1.00
C203   C     0.81519   0.81145   0.08558   0.00000  Uiso   1.00
C204   C     0.76613   0.78746   0.04060   0.00000  Uiso   1.00
N205   N     0.77012   0.74366   0.97857   0.00000  Uiso   1.00
N206   N     0.82477   0.68441   0.89591   0.00000  Uiso   1.00
C207   C     0.87599   0.67144   0.87396   0.00000  Uiso   1.00
C208   C     0.92593   0.70104   0.91665   0.00000  Uiso   1.00
N209   N     0.92194   0.74001  -0.01937   0.00000  Uiso   1.00
H210   H     0.81339   0.84659   0.13527   0.00000  Uiso   1.00
H211   H     0.87765   0.64024   0.82282   0.00000  Uiso   1.00
C212   C     0.50072   0.66107   0.30985   0.00000  Uiso   1.00
C213   C     0.44770   0.66420   0.33388   0.00000  Uiso   1.00
N214   N     0.41621   0.70980   0.33661   0.00000  Uiso   1.00
C215   C     0.43466   0.75172   0.31485   0.00000  Uiso   1.00
C216   C     0.48708   0.74806   0.28946   0.00000  Uiso   1.00
N217   N     0.51942   0.70332   0.28846   0.00000  Uiso   1.00
N218   N     0.53043   0.61292   0.30363   0.00000  Uiso   1.00
C219   C     0.50879   0.56678   0.31859   0.00000  Uiso   1.00
C220   C     0.45489   0.56889   0.34059   0.00000  Uiso   1.00
N221   N     0.42631   0.61831   0.34859   0.00000  Uiso   1.00
H222   H     0.40829   0.78691   0.31629   0.00000  Uiso   1.00
H223   H     0.53213   0.52752   0.31053   0.00000  Uiso   1.00
loop_
_geom_bond_atom_site_label_1
_geom_bond_atom_site_label_2
_geom_bond_distance
_geom_bond_site_symmetry_2
_ccdc_geom_bond_type
Y0     O10     2.230   .     S
Y0     O12     2.236   .     S
Y0     O13     2.268   .     S
Y0     O14     2.255   .     S
Y0     O15     2.268   .     S
Y0     O17     2.218   .     S
Y1     O8      2.231   .     S
Y1     O11     2.267   .     S
Y1     O16     2.272   .     S
Y1     O18     2.272   .     S
Y1     O19     2.244   .     S
Y1     O9      2.288   1_455 S
C2     O8      1.254   .     A
C2     O9      1.267   1_455 A
C2     C208    1.473   1_455 S
C3     O10     1.267   .     A
C3     O11     1.278   .     A
C3     C192    1.463   .     S
C4     O12     1.259   .     A
C4     O13     1.262   .     A
C4     C156    1.463   1_556 S
C5     O14     1.259   .     A
C5     O15     1.261   .     A
C5     C148    1.470   .     S
C6     O16     1.270   .     A
C6     O17     1.261   .     A
C6     C88     1.481   .     S
C7     O18     1.263   .     A
C7     O19     1.258   .     A
C7     C184    1.469   1_455 S
O9     Y1      2.288   1_655 S
O9     C2      1.267   1_655 A
Y20    O30     2.223   .     S
Y20    O32     2.251   .     S
Y20    O33     2.264   .     S
Y20    O34     2.249   .     S
Y20    O35     2.275   .     S
Y20    O37     2.228   .     S
Y21    O28     2.238   .     S
Y21    O29     2.283   .     S
Y21    O31     2.262   .     S
Y21    O36     2.278   .     S
Y21    O38     2.278   .     S
Y21    O39     2.247   1_554 S
C22    O28     1.253   .     A
C22    O29     1.265   .     A
C22    C204    1.469   .     S
C23    O30     1.265   .     A
C23    O31     1.274   .     A
C23    C136    1.472   .     S
C24    O32     1.261   .     A
C24    O33     1.259   .     A
C24    C216    1.465   .     S
C25    O34     1.257   .     A
C25    O35     1.261   .     A
C25    C100    1.469   1_565 S
C26    O36     1.276   .     A
C26    O37     1.266   .     A
C26    C84     1.478   .     S
C27    O38     1.262   .     A
C27    O39     1.255   1_554 A
C27    C124    1.471   1_554 S
O39    Y21     2.247   1_556 S
O39    C27     1.255   1_556 A
Y40    O50     2.258   .     S
Y40    O52     2.224   .     S
Y40    O53     2.250   .     S
Y40    O54     2.237   .     S
Y40    O55     2.254   .     S
Y40    O57     2.211   .     S
Y41    O48     2.257   .     S
Y41    O51     2.298   .     S
Y41    O56     2.287   .     S
Y41    O58     2.276   .     S
Y41    O59     2.257   .     S
Y41    O49     2.272   1_545 S
C42    O48     1.256   .     A
C42    O49     1.260   1_545 A
C42    C180    1.472   1_545 S
C43    O50     1.271   .     A
C43    O51     1.280   .     A
C43    C132    1.476   .     S
C44    O52     1.265   .     A
C44    O53     1.272   .     A
C44    C172    1.464   1_655 S
C45    O54     1.266   .     A
C45    O55     1.267   .     A
C45    C108    1.464   .     S
C46    O56     1.264   .     A
C46    O57     1.251   .     A
C46    C196    1.462   .     S
C47    O58     1.260   .     A
C47    O59     1.255   .     A
C47    C120    1.473   1_545 S
O49    Y41     2.272   1_565 S
O49    C42     1.260   1_565 A
Y60    O70     2.253   .     S
Y60    O72     2.219   .     S
Y60    O73     2.283   .     S
Y60    O74     2.241   .     S
Y60    O75     2.246   .     S
Y60    O77     2.222   .     S
Y61    O68     2.276   .     S
Y61    O69     2.234   .     S
Y61    O71     2.269   .     S
Y61    O76     2.252   .     S
Y61    O78     2.277   .     S
Y61    O79     2.230   .     S
C62    O68     1.266   .     A
C62    O69     1.256   .     A
C62    C220    1.468   .     S
C63    O70     1.277   .     A
C63    O71     1.282   .     A
C63    C144    1.473   .     S
C64    O72     1.258   .     A
C64    O73     1.270   .     A
C64    C112    1.472   .     S
C65    O74     1.264   .     A
C65    O75     1.266   .     A
C65    C168    1.463   .     S
C66    O76     1.261   .     A
C66    O77     1.264   .     A
C66    C96     1.472   .     S
C67    O78     1.264   .     A
C67    O79     1.256   .     A
C67    C160    1.464   .     S
C80    N85     1.358   .     A
C80    N86     1.355   .     A
C80    C81     1.404   1_554 A
C81    N82     1.359   .     A
C81    N89     1.362   .     A
C81    C80     1.404   1_556 A
N82    C83     1.363   .     A
C83    H90     1.082   .     S
C83    C84     1.407   1_556 A
C84    N85     1.362   .     A
C84    C83     1.407   1_554 A
N86    C87     1.359   .     A
C87    H91     1.082   .     S
C87    C88     1.409   1_554 A
C88    N89     1.365   .     A
C88    C87     1.409   1_556 A
C92    C93     1.403   .     A
C92    N97     1.353   .     A
C92    N98     1.354   .     A
C93    N94     1.360   .     A
C93    N101    1.362   .     A
N94    C95     1.364   .     A
C95    C96     1.408   .     A
C95    H102    1.082   .     S
C96    N97     1.356   .     A
N98    C99     1.355   .     A
C99    C100    1.405   .     A
C99    H103    1.083   .     S
C100   N101    1.365   .     A
C100   C25     1.469   1_545 S
C104   C105    1.406   .     A
C104   N109    1.352   .     A
C104   N110    1.351   .     A
C105   N106    1.360   .     A
C105   N113    1.365   .     A
N106   C107    1.365   .     A
C107   C108    1.405   .     A
C107   H114    1.082   .     S
C108   N109    1.357   .     A
N110   C111    1.353   .     A
C111   C112    1.407   .     A
C111   H115    1.081   .     S
C112   N113    1.365   .     A
C116   C117    1.406   .     A
C116   N121    1.359   .     A
C116   N122    1.356   .     A
C117   N125    1.360   .     A
C117   N118    1.357   1_565 A
N118   C119    1.360   .     A
N118   C117    1.357   1_545 A
C119   H126    1.082   .     S
C119   C120    1.407   1_545 A
C120   N121    1.361   .     A
C120   C119    1.407   1_565 A
C120   C47     1.473   1_565 S
N122   C123    1.359   .     A
C123   C124    1.407   .     A
C123   H127    1.082   .     S
C124   N125    1.362   .     A
C124   C27     1.471   1_556 S
C128   C129    1.406   .     A
C128   N133    1.358   .     A
C128   N134    1.354   .     A
C129   N130    1.356   .     A
C129   N137    1.360   .     A
N130   C131    1.360   .     A
C131   H138    1.081   .     S
C131   C132    1.408   1_565 A
C132   C131    1.408   1_545 A
C132   N133    1.361   1_545 A
N133   C132    1.361   1_565 A
N134   C135    1.358   .     A
C135   C136    1.408   .     A
C135   H139    1.079   .     S
C136   N137    1.362   .     A
C140   C141    1.405   .     A
C140   N145    1.358   .     A
C140   N146    1.358   .     A
C141   N142    1.358   .     A
C141   N149    1.359   .     A
N142   C143    1.361   .     A
C143   C144    1.406   .     A
C143   H150    1.083   .     S
C144   N145    1.363   .     A
N146   C147    1.360   .     A
C147   C148    1.406   .     A
C147   H151    1.083   .     S
C148   N149    1.363   .     A
C152   C153    1.404   .     A
C152   N157    1.363   .     A
C152   N158    1.363   .     A
C153   N154    1.354   .     A
C153   N161    1.349   .     A
N154   C155    1.353   .     A
C155   C156    1.402   .     A
C155   H162    1.083   .     S
C156   N157    1.366   .     A
C156   C4      1.463   1_554 S
N158   C159    1.366   .     A
C159   C160    1.406   .     A
C159   H163    1.083   .     S
C160   N161    1.357   .     A
C164   C165    1.402   .     A
C164   N169    1.356   .     A
C164   N170    1.358   .     A
C165   N166    1.357   .     A
C165   N173    1.355   .     A
N166   C167    1.360   .     A
C167   C168    1.406   .     A
C167   H174    1.084   .     S
C168   N169    1.361   .     A
N170   C171    1.361   .     A
C171   C172    1.404   .     A
C171   H175    1.083   .     S
C172   N173    1.361   .     A
C172   C44     1.464   1_455 S
C176   N181    1.358   .     A
C176   N182    1.356   .     A
C176   C177    1.406   1_455 A
C177   N178    1.357   .     A
C177   N185    1.360   .     A
C177   C176    1.406   1_655 A
N178   C179    1.361   .     A
C179   C180    1.408   .     A
C179   H186    1.083   .     S
C180   N181    1.361   1_655 A
C180   C42     1.472   1_565 S
N181   C180    1.361   1_455 A
N182   C183    1.358   .     A
C183   H187    1.083   .     S
C183   C184    1.406   1_455 A
C184   N185    1.362   .     A
C184   C183    1.406   1_655 A
C184   C7      1.469   1_655 S
C188   N193    1.355   .     A
C188   N194    1.355   .     A
C188   C189    1.405   1_455 A
C189   N190    1.358   .     A
C189   N197    1.361   .     A
C189   C188    1.405   1_655 A
N190   C191    1.362   .     A
C191   H198    1.082   .     S
C191   C192    1.405   1_655 A
C192   N193    1.359   .     A
C192   C191    1.405   1_455 A
N194   C195    1.358   .     A
C195   H199    1.083   .     S
C195   C196    1.403   1_455 A
C196   N197    1.362   .     A
C196   C195    1.403   1_655 A
C200   N205    1.358   .     A
C200   N206    1.354   .     A
C200   C201    1.407   1_556 A
C201   N202    1.357   .     A
C201   N209    1.362   .     A
C201   C200    1.407   1_554 A
N202   C203    1.361   .     A
C203   C204    1.409   .     A
C203   H210    1.083   .     S
C204   N205    1.359   1_554 A
N205   C204    1.359   1_556 A
N206   C207    1.356   .     A
C207   C208    1.408   .     A
C207   H211    1.083   .     S
C208   N209    1.363   1_556 A
C208   C2      1.473   1_655 S
N209   C208    1.363   1_554 A
C212   C213    1.403   .     A
C212   N217    1.360   .     A
C212   N218    1.361   .     A
C213   N214    1.356   .     A
C213   N221    1.353   .     A
N214   C215    1.358   .     A
C215   C216    1.403   .     A
C215   H222    1.083   .     S
C216   N217    1.364   .     A
N218   C219    1.364   .     A
C219   C220    1.405   .     A
C219   H223    1.082   .     S
C220   N221    1.361   .     A
