data_lcy+N144+E9
_audit_creation_date              2025-01-21
_audit_creation_method            'Materials Studio'
_symmetry_space_group_name_H-M    'P1'
_symmetry_Int_Tables_number       1
_symmetry_cell_setting            triclinic
loop_
_symmetry_equiv_pos_as_xyz
  x,y,z
_cell_length_a                    32.9713
_cell_length_b                    32.8098
_cell_length_c                    31.6598
_cell_angle_alpha                 86.5197
_cell_angle_beta                  85.9138
_cell_angle_gamma                 83.2734
loop_
_atom_site_label
_atom_site_type_symbol
_atom_site_fract_x
_atom_site_fract_y
_atom_site_fract_z
_atom_site_U_iso_or_equiv
_atom_site_adp_type
_atom_site_occupancy
C0     C     0.21249   0.67446   0.93123   0.00000  Uiso   1.00
Er1    Er    0.10314   0.60178   0.86477   0.00000  Uiso   1.00
Er2    Er    0.15365   0.63990   0.87646   0.00000  Uiso   1.00
C3     C     0.07919   0.65741   0.93691   0.00000  Uiso   1.00
O4     O     0.17860   0.59053   0.91839   0.00000  Uiso   1.00
C5     C     0.09500   0.68642   0.81821   0.00000  Uiso   1.00
C6     C     0.17685   0.58838   0.80054   0.00000  Uiso   1.00
C7     C     0.06963   0.54703   0.82533   0.00000  Uiso   1.00
O8     O     0.19034   0.65820   0.95793   0.00000  Uiso   1.00
O9     O     0.20367   0.67670   0.88871   0.00000  Uiso   1.00
O10    O     0.19120   0.61337   0.82313   0.00000  Uiso   1.00
O11    O     0.14159   0.57688   0.81090   0.00000  Uiso   1.00
O12    O     0.12852   0.68837   0.83472   0.00000  Uiso   1.00
O13    O     0.07749   0.65345   0.82320   0.00000  Uiso   1.00
C14    C     0.16153   0.55807   0.92679   0.00000  Uiso   1.00
O15    O     0.12947   0.55282   0.90845   0.00000  Uiso   1.00
O16    O     0.11440   0.66885   0.92778   0.00000  Uiso   1.00
O17    O     0.06788   0.62853   0.91776   0.00000  Uiso   1.00
O18    O     0.10506   0.55735   0.81478   0.00000  Uiso   1.00
O19    O     0.05231   0.56692   0.85557   0.00000  Uiso   1.00
C20    C     0.70146   0.92098   0.19996   0.00000  Uiso   1.00
Er21   Er    0.61436   0.86936   0.09104   0.00000  Uiso   1.00
Er22   Er    0.65974   0.87445   0.13959   0.00000  Uiso   1.00
C23    C     0.67364   0.92910   0.06066   0.00000  Uiso   1.00
O24    O     0.61962   0.92595   0.16306   0.00000  Uiso   1.00
C25    C     0.69316   0.81118   0.07916   0.00000  Uiso   1.00
C26    C     0.60388   0.81167   0.17049   0.00000  Uiso   1.00
C27    C     0.55451   0.83474   0.06237   0.00000  Uiso   1.00
O28    O     0.69287   0.94962   0.17468   0.00000  Uiso   1.00
O29    O     0.70413   0.88083   0.18751   0.00000  Uiso   1.00
O30    O     0.62991   0.83231   0.18428   0.00000  Uiso   1.00
O31    O     0.59209   0.81988   0.13300   0.00000  Uiso   1.00
O32    O     0.69882   0.82332   0.11524   0.00000  Uiso   1.00
O33    O     0.66078   0.82481   0.06055   0.00000  Uiso   1.00
C34    C     0.58430   0.93654   0.14991   0.00000  Uiso   1.00
O35    O     0.57096   0.91587   0.12206   0.00000  Uiso   1.00
O36    O     0.69108   0.91520   0.09395   0.00000  Uiso   1.00
O37    O     0.63948   0.91815   0.05354   0.00000  Uiso   1.00
O38    O     0.56961   0.82444   0.09779   0.00000  Uiso   1.00
O39    O     0.57169   0.86316   0.04250   0.00000  Uiso   1.00
C40    C     0.91669   0.19579   0.70295   0.00000  Uiso   1.00
Er41   Er    0.85843   0.11070   0.59573   0.00000  Uiso   1.00
Er42   Er    0.86566   0.15112   0.64951   0.00000  Uiso   1.00
C43    C     0.91564   0.06625   0.65638   0.00000  Uiso   1.00
O44    O     0.91275   0.17931   0.61132   0.00000  Uiso   1.00
C45    C     0.80023   0.09729   0.67467   0.00000  Uiso   1.00
C46    C     0.80201   0.18972   0.59006   0.00000  Uiso   1.00
C47    C     0.82145   0.05716   0.55941   0.00000  Uiso   1.00
O48    O     0.94198   0.16806   0.69118   0.00000  Uiso   1.00
O49    O     0.87517   0.19243   0.70047   0.00000  Uiso   1.00
O50    O     0.81813   0.19666   0.62404   0.00000  Uiso   1.00
O51    O     0.81603   0.15867   0.56939   0.00000  Uiso   1.00
O52    O     0.81850   0.12511   0.68837   0.00000  Uiso   1.00
O53    O     0.80852   0.08582   0.63667   0.00000  Uiso   1.00
C54    C     0.92679   0.16515   0.57640   0.00000  Uiso   1.00
O55    O     0.91054   0.13631   0.56164   0.00000  Uiso   1.00
O56    O     0.90993   0.10060   0.67431   0.00000  Uiso   1.00
O57    O     0.89923   0.06250   0.62219   0.00000  Uiso   1.00
O58    O     0.85268   0.07244   0.54341   0.00000  Uiso   1.00
O59    O     0.80990   0.06988   0.59599   0.00000  Uiso   1.00
C60    C     0.30047   0.30656   0.44257   0.00000  Uiso   1.00
Er61   Er    0.40795   0.39264   0.35389   0.00000  Uiso   1.00
Er62   Er    0.35789   0.35423   0.37907   0.00000  Uiso   1.00
C63    C     0.43275   0.34182   0.43188   0.00000  Uiso   1.00
O64    O     0.33247   0.40315   0.41849   0.00000  Uiso   1.00
C65    C     0.41394   0.30654   0.31781   0.00000  Uiso   1.00
C66    C     0.33589   0.40460   0.29863   0.00000  Uiso   1.00
C67    C     0.44580   0.45918   0.34431   0.00000  Uiso   1.00
O68    O     0.32855   0.30512   0.46573   0.00000  Uiso   1.00
O69    O     0.30513   0.31991   0.40017   0.00000  Uiso   1.00
O70    O     0.32116   0.38051   0.32719   0.00000  Uiso   1.00
O71    O     0.37103   0.41587   0.30194   0.00000  Uiso   1.00
O72    O     0.38117   0.30429   0.34049   0.00000  Uiso   1.00
O73    O     0.43211   0.33878   0.31751   0.00000  Uiso   1.00
C74    C     0.34844   0.43631   0.41948   0.00000  Uiso   1.00
O75    O     0.37995   0.44246   0.39476   0.00000  Uiso   1.00
O76    O     0.39821   0.32840   0.42896   0.00000  Uiso   1.00
O77    O     0.44438   0.36939   0.40550   0.00000  Uiso   1.00
O78    O     0.41396   0.45653   0.36910   0.00000  Uiso   1.00
O79    O     0.45716   0.42628   0.32618   0.00000  Uiso   1.00
C80    C     0.45589   0.78373   0.01977   0.00000  Uiso   1.00
N81    N     0.46932   0.77275   0.05883   0.00000  Uiso   1.00
N82    N     0.50117   0.78869   0.07218   0.00000  Uiso   1.00
C83    C     0.52057   0.81623   0.04697   0.00000  Uiso   1.00
N84    N     0.50728   0.82715   1.00785   0.00000  Uiso   1.00
N85    N     0.47550   0.81109   0.99443   0.00000  Uiso   1.00
C86    C     0.42020   0.76687   1.00566   0.00000  Uiso   1.00
N87    N     0.40789   0.77571   0.96578   0.00000  Uiso   1.00
N88    N     0.37503   0.76076   0.95340   0.00000  Uiso   1.00
C89    C     0.35331   0.73659   0.98054   0.00000  Uiso   1.00
N90    N     0.36565   0.72777   0.02036   0.00000  Uiso   1.00
N91    N     0.39854   0.74260   0.03269   0.00000  Uiso   1.00
C92    C     0.31675   0.72061   0.96745   0.00000  Uiso   1.00
N93    N     0.29302   0.70005   0.99615   0.00000  Uiso   1.00
N94    N     0.25963   0.68560   0.98461   0.00000  Uiso   1.00
C95    C     0.24877   0.69116   0.94394   0.00000  Uiso   1.00
N96    N     0.27253   0.71165   0.91517   0.00000  Uiso   1.00
N97    N     0.30591   0.72621   0.92674   0.00000  Uiso   1.00
C98    C     0.45991   0.20237   0.25230   0.00000  Uiso   1.00
N99    N     0.42011   0.20818   0.26687   0.00000  Uiso   1.00
N100   N     0.40559   0.24188   0.28691   0.00000  Uiso   1.00
C101   C     0.43013   0.27125   0.29284   0.00000  Uiso   1.00
N102   N     0.46984   0.26585   0.27770   0.00000  Uiso   1.00
N103   N     0.48449   0.23189   0.25793   0.00000  Uiso   1.00
C104   C     0.47664   0.16351   0.23351   0.00000  Uiso   1.00
N105   N     0.51768   0.15320   0.22894   0.00000  Uiso   1.00
N106   N     0.53303   0.11682   0.21482   0.00000  Uiso   1.00
C107   C     0.50804   0.08942   0.20438   0.00000  Uiso   1.00
N108   N     0.46692   0.09986   0.20838   0.00000  Uiso   1.00
N109   N     0.45152   0.13619   0.22293   0.00000  Uiso   1.00
C110   C     0.52598   0.04869   0.19097   0.00000  Uiso   1.00
N111   N     0.50481   1.02413   0.16966   0.00000  Uiso   1.00
N112   N     0.52257   0.98776   0.15692   0.00000  Uiso   1.00
C113   C     0.56185   0.97456   0.16577   0.00000  Uiso   1.00
N114   N     0.58251   0.99900   0.18748   0.00000  Uiso   1.00
N115   N     0.56504   0.03529   0.19970   0.00000  Uiso   1.00
C116   C     0.68751   0.24438   0.55623   0.00000  Uiso   1.00
N117   N     0.70982   0.21599   0.53222   0.00000  Uiso   1.00
N118   N     0.74744   0.20102   0.54178   0.00000  Uiso   1.00
C119   C     0.76447   0.21374   0.57575   0.00000  Uiso   1.00
N120   N     0.74248   0.24280   0.59955   0.00000  Uiso   1.00
N121   N     0.70474   0.25817   0.58968   0.00000  Uiso   1.00
C122   C     0.64482   0.25759   0.54671   0.00000  Uiso   1.00
N123   N     0.62521   0.29430   0.55842   0.00000  Uiso   1.00
N124   N     0.58721   0.30639   0.54717   0.00000  Uiso   1.00
C125   C     0.56725   0.28187   0.52459   0.00000  Uiso   1.00
N126   N     0.58666   0.24491   0.51368   0.00000  Uiso   1.00
N127   N     0.62472   0.23309   0.52442   0.00000  Uiso   1.00
C128   C     0.52749   0.29678   0.50765   0.00000  Uiso   1.00
N129   N     0.50503   0.27043   0.49059   0.00000  Uiso   1.00
N130   N     0.47233   0.28452   0.46929   0.00000  Uiso   1.00
C131   C     0.46106   0.32554   0.46409   0.00000  Uiso   1.00
N132   N     0.48310   0.35176   0.48182   0.00000  Uiso   1.00
N133   N     0.51541   0.33768   0.50356   0.00000  Uiso   1.00
C134   C     0.74273   0.04320   0.77933   0.00000  Uiso   1.00
N135   N     0.76697   0.01961   0.75160   0.00000  Uiso   1.00
N136   N     0.78173   0.03615   0.71504   0.00000  Uiso   1.00
C137   C     0.77275   0.07685   0.70489   0.00000  Uiso   1.00
N138   N     0.74739   0.10002   0.73199   0.00000  Uiso   1.00
N139   N     0.73228   0.08345   0.76827   0.00000  Uiso   1.00
C140   C     0.73320   0.02749   0.82283   0.00000  Uiso   1.00
N141   N     0.70657   0.05010   0.84932   0.00000  Uiso   1.00
N142   N     0.70079   0.03792   0.88996   0.00000  Uiso   1.00
C143   C     0.72208   1.00311   0.90589   0.00000  Uiso   1.00
N144   N     0.74871   0.98046   0.87941   0.00000  Uiso   1.00
N145   N     0.75428   0.99250   0.83867   0.00000  Uiso   1.00
C146   C     0.71399   0.98871   0.95015   0.00000  Uiso   1.00
N147   N     0.73827   0.95695   0.96810   0.00000  Uiso   1.00
N148   N     0.72767   0.94050   0.00627   0.00000  Uiso   1.00
C149   C     0.69252   0.95531   0.02788   0.00000  Uiso   1.00
N150   N     0.66884   0.98763   0.01024   0.00000  Uiso   1.00
N151   N     0.67963   1.00437   0.97240   0.00000  Uiso   1.00
C152   C     0.76435  -0.01101   0.48037   0.00000  Uiso   1.00
N153   N     0.80513  -0.01892   0.48509   0.00000  Uiso   1.00
N154   N     0.82297   0.00129   0.51237   0.00000  Uiso   1.00
C155   C     0.80057   0.02954   0.53657   0.00000  Uiso   1.00
N156   N     0.75955   0.03662   0.53291   0.00000  Uiso   1.00
N157   N     0.74176   0.01687   0.50503   0.00000  Uiso   1.00
C158   C     0.74703  -0.02735   0.44458   0.00000  Uiso   1.00
N159   N     0.71519  -0.00553   0.42546   0.00000  Uiso   1.00
N160   N     0.70429   0.98377   0.38833   0.00000  Uiso   1.00
C161   C     0.72465   0.95072   0.36924   0.00000  Uiso   1.00
N162   N     0.75565   0.92821   0.38898   0.00000  Uiso   1.00
N163   N     0.76686   0.93920   0.42582   0.00000  Uiso   1.00
C164   C     0.71650   0.94209   0.32606   0.00000  Uiso   1.00
N165   N     0.73114   0.90550   0.30982   0.00000  Uiso   1.00
N166   N     0.72629   0.89872   0.26955   0.00000  Uiso   1.00
C167   C     0.70742   0.92862   0.24391   0.00000  Uiso   1.00
N168   N     0.69278   0.96520   0.26012   0.00000  Uiso   1.00
N169   N     0.69720   0.97181   0.30052   0.00000  Uiso   1.00
C170   C     0.29915   0.50292   0.52246   0.00000  Uiso   1.00
N171   N     0.33811   0.50699   0.50682   0.00000  Uiso   1.00
N172   N     0.35352   0.48835   0.47179   0.00000  Uiso   1.00
C173   C     0.33035   0.46523   0.45118   0.00000  Uiso   1.00
N174   N     0.29124   0.46228   0.46632   0.00000  Uiso   1.00
N175   N     0.27591   0.48087   0.50100   0.00000  Uiso   1.00
C176   C     0.28269   0.51811   0.56387   0.00000  Uiso   1.00
N177   N     0.24549   0.50839   0.57964   0.00000  Uiso   1.00
N178   N     0.23062   0.51917   0.61800   0.00000  Uiso   1.00
C179   C     0.25231   0.54011   0.64239   0.00000  Uiso   1.00
N180   N     0.28958   0.55014   0.62671   0.00000  Uiso   1.00
N181   N     0.30461   0.53917   0.58817   0.00000  Uiso   1.00
C182   C     0.23476   0.55145   0.68479   0.00000  Uiso   1.00
N183   N     0.25283   0.57608   0.70904   0.00000  Uiso   1.00
N184   N     0.23519   0.58715   0.74658   0.00000  Uiso   1.00
C185   C     0.19903   0.57373   0.76128   0.00000  Uiso   1.00
N186   N     0.18138   0.54881   0.73717   0.00000  Uiso   1.00
N187   N     0.19889   0.53788   0.69978   0.00000  Uiso   1.00
C188   C     0.21108   0.48894   0.02938   0.00000  Uiso   1.00
N189   N     0.17132   0.48712   0.02141   0.00000  Uiso   1.00
N190   N     0.15567   0.50672   0.98690   0.00000  Uiso   1.00
C191   C     0.17931   0.52873   0.95928   0.00000  Uiso   1.00
N192   N     0.21910   0.52964   0.96700   0.00000  Uiso   1.00
N193   N     0.23470   0.50999   0.00112   0.00000  Uiso   1.00
C194   C     0.22819   0.47259   0.06954   0.00000  Uiso   1.00
N195   N     0.26678   0.47947   0.07687   0.00000  Uiso   1.00
N196   N     0.28228   0.46829   0.11398   0.00000  Uiso   1.00
C197   C     0.25987   0.44973   0.14545   0.00000  Uiso   1.00
N198   N     0.22129   0.44227   0.13818   0.00000  Uiso   1.00
N199   N     0.20562   0.45370   0.10089   0.00000  Uiso   1.00
C200   C     0.27782   0.43888   0.18648   0.00000  Uiso   1.00
N201   N     0.25908   0.41620   0.21778   0.00000  Uiso   1.00
N202   N     0.27689   0.40590   0.25414   0.00000  Uiso   1.00
C203   C     0.31387   0.41824   0.26053   0.00000  Uiso   1.00
N204   N     0.33223   0.44116   0.22935   0.00000  Uiso   1.00
N205   N     0.31457   0.45128   0.19313   0.00000  Uiso   1.00
C206   C     0.18772   0.26685   0.48315   0.00000  Uiso   1.00
N207   N     0.22248   0.24910   0.50044   0.00000  Uiso   1.00
N208   N     0.25851   0.26237   0.48849   0.00000  Uiso   1.00
C209   C     0.26098   0.29340   0.45836   0.00000  Uiso   1.00
N210   N     0.22625   0.31103   0.44111   0.00000  Uiso   1.00
N211   N     0.19020   0.29828   0.45357   0.00000  Uiso   1.00
C212   C     0.14812   0.25181   0.49514   0.00000  Uiso   1.00
N213   N     0.11297   0.27776   0.49355   0.00000  Uiso   1.00
N214   N     0.07687   0.26410   0.50364   0.00000  Uiso   1.00
C215   C     0.07453   0.22378   0.51474   0.00000  Uiso   1.00
N216   N     0.10967   0.19775   0.51605   0.00000  Uiso   1.00
N217   N     0.14584   0.21155   0.50664   0.00000  Uiso   1.00
C218   C     0.03484   0.20910   0.52710   0.00000  Uiso   1.00
N219   N     0.02890   0.16928   0.52298   0.00000  Uiso   1.00
N220   N     0.99345   0.15564   0.53654   0.00000  Uiso   1.00
C221   C     0.96288   0.18128   0.55503   0.00000  Uiso   1.00
N222   N     0.96882   0.22107   0.55896   0.00000  Uiso   1.00
N223   N     1.00396   0.23486   0.54479   0.00000  Uiso   1.00
C224   C     0.97285   0.95533   0.70700   0.00000  Uiso   1.00
N225   N     0.95130   0.95714   0.67211   0.00000  Uiso   1.00
N226   N     0.93448  -0.00705   0.65616   0.00000  Uiso   1.00
C227   C     0.93815   0.02857   0.67444   0.00000  Uiso   1.00
N228   N     0.95978   0.02710   0.70961   0.00000  Uiso   1.00
N229   N     0.97717   0.99097   0.72543   0.00000  Uiso   1.00
C230   C     0.99024   0.91489   0.72392   0.00000  Uiso   1.00
N231   N     1.02172   0.91087   0.74969   0.00000  Uiso   1.00
N232   N     0.03806   0.87364   0.76310   0.00000  Uiso   1.00
C233   C     1.02331   0.83919   0.75155   0.00000  Uiso   1.00
N234   N     0.99160   0.84325   0.72611   0.00000  Uiso   1.00
N235   N     0.97556   0.88042   0.71235   0.00000  Uiso   1.00
C236   C     0.04200   0.79842   0.76617   0.00000  Uiso   1.00
N237   N     0.02263   0.76410   0.76464   0.00000  Uiso   1.00
N238   N     0.03960   0.72762   0.77981   0.00000  Uiso   1.00
C239   C     0.07680   0.72428   0.79640   0.00000  Uiso   1.00
N240   N     0.09614   0.75854   0.79718   0.00000  Uiso   1.00
N241   N     0.07915   0.79482   0.78244   0.00000  Uiso   1.00
C242   C     0.01900   0.44903   0.77957   0.00000  Uiso   1.00
N243   N     0.99644   0.47543   0.80576   0.00000  Uiso   1.00
N244   N     0.01236   0.50739   0.81920   0.00000  Uiso   1.00
C245   C     0.05131   0.51433   0.80674   0.00000  Uiso   1.00
N246   N     0.07379   0.48828   0.78009   0.00000  Uiso   1.00
N247   N     0.05790   0.45618   0.76677   0.00000  Uiso   1.00
C248   C     1.00246   0.41213   0.76740   0.00000  Uiso   1.00
N249   N     0.02718   0.38226   0.74741   0.00000  Uiso   1.00
N250   N     0.01279   0.34787   0.73813   0.00000  Uiso   1.00
C251   C     0.97311   0.34200   0.74840   0.00000  Uiso   1.00
N252   N     0.94824   0.37200   0.76813   0.00000  Uiso   1.00
N253   N     0.96270   0.40636   0.77761   0.00000  Uiso   1.00
C254   C     0.95787   0.30372   0.73825   0.00000  Uiso   1.00
N255   N     0.91724   0.29930   0.74214   0.00000  Uiso   1.00
N256   N     0.90386   0.26470   0.73156   0.00000  Uiso   1.00
C257   C     0.93071   0.23315   0.71722   0.00000  Uiso   1.00
N258   N     0.97126   0.23752   0.71383   0.00000  Uiso   1.00
N259   N     0.98455   0.27211   0.72403   0.00000  Uiso   1.00
C260   C     0.80369   0.75349   0.03259   0.00000  Uiso   1.00
N261   N     0.78158   0.78164   0.00759   0.00000  Uiso   1.00
N262   N     0.74379   0.79704   0.02050   0.00000  Uiso   1.00
C263   C     0.72678   0.78478   0.05881   0.00000  Uiso   1.00
N264   N     0.74857   0.75586   0.08317   0.00000  Uiso   1.00
N265   N     0.78607   0.74012   0.07009   0.00000  Uiso   1.00
C266   C     0.84731   0.74113   0.02198   0.00000  Uiso   1.00
N267   N     0.86761   0.70932   0.04411   0.00000  Uiso   1.00
N268   N     0.90772   0.69955   1.03654   0.00000  Uiso   1.00
C269   C     0.92922   0.72178   1.00721   0.00000  Uiso   1.00
N270   N     0.90898   0.75376   0.98520   0.00000  Uiso   1.00
N271   N     0.86876   0.76334   0.99254   0.00000  Uiso   1.00
C272   C     0.97273   0.70883   0.99656   0.00000  Uiso   1.00
N273   N     0.99535   0.73237   0.96962   0.00000  Uiso   1.00
N274   N     0.03260   0.71755   0.95450   0.00000  Uiso   1.00
C275   C     0.04865   0.67876   0.96591   0.00000  Uiso   1.00
N276   N     0.02647   0.65585   0.99394   0.00000  Uiso   1.00
N277   N     0.98947   0.67076   1.00939   0.00000  Uiso   1.00
C278   C     0.56131   0.70964   0.23749   0.00000  Uiso   1.00
N279   N     0.57622   0.73876   0.25892   0.00000  Uiso   1.00
N280   N     0.58980   0.77171   0.23806   0.00000  Uiso   1.00
C281   C     0.58822   0.77681   0.19522   0.00000  Uiso   1.00
N282   N     0.57288   0.74789   0.17418   0.00000  Uiso   1.00
N283   N     0.55997   0.71487   0.19482   0.00000  Uiso   1.00
C284   C     0.54803   0.67197   0.25878   0.00000  Uiso   1.00
N285   N     0.55086   0.63753   0.23668   0.00000  Uiso   1.00
N286   N     0.53714   0.60345   0.25405   0.00000  Uiso   1.00
C287   C     0.51946   0.60254   0.29403   0.00000  Uiso   1.00
N288   N     0.51658   0.63699   0.31641   0.00000  Uiso   1.00
N289   N     0.53090   0.67111   0.29914   0.00000  Uiso   1.00
C290   C     0.50254   0.56494   0.31103   0.00000  Uiso   1.00
N291   N     0.47285   0.56548   0.34319   0.00000  Uiso   1.00
N292   N     0.45509   0.53161   0.35496   0.00000  Uiso   1.00
C293   C     0.46669   0.49611   0.33509   0.00000  Uiso   1.00
N294   N     0.49681   0.49557   0.30362   0.00000  Uiso   1.00
N295   N     0.51424   0.52931   0.29171   0.00000  Uiso   1.00
loop_
_geom_bond_atom_site_label_1
_geom_bond_atom_site_label_2
_geom_bond_distance
_geom_bond_site_symmetry_2
_ccdc_geom_bond_type
C0     O8      1.217   .     D
C0     O9      1.393   .     S
C0     C95     1.464   .     S
Er1    O11     2.191   .     S
Er1    O13     2.207   .     S
Er1    O15     2.196   .     S
Er1    O17     2.144   .     S
Er1    O18     2.209   .     S
Er1    O19     2.182   .     S
Er2    O4      2.155   .     S
Er2    O9      2.223   .     S
Er2    O10     2.184   .     S
Er2    O12     2.134   .     S
Er2    O16     2.195   .     S
C3     O16     1.270   .     A
C3     O17     1.260   .     A
C3     C275    1.459   .     S
O4     C14     1.267   .     A
C5     O12     1.266   .     A
C5     O13     1.281   .     A
C5     C239    1.470   .     S
C6     O10     1.272   .     A
C6     O11     1.278   .     A
C6     C185    1.474   .     S
C7     O18     1.271   .     A
C7     O19     1.257   .     A
C7     C245    1.463   .     S
C14    O15     1.275   .     A
C14    C191    1.470   .     S
C20    O28     1.218   .     D
C20    O29     1.389   .     S
C20    C167    1.460   .     S
Er21   O31     2.195   .     S
Er21   O33     2.202   .     S
Er21   O35     2.194   .     S
Er21   O37     2.144   .     S
Er21   O38     2.196   .     S
Er21   O39     2.190   .     S
Er22   O24     2.156   .     S
Er22   O29     2.217   .     S
Er22   O30     2.183   .     S
Er22   O32     2.139   .     S
Er22   O36     2.195   .     S
C23    O36     1.271   .     A
C23    O37     1.261   .     A
C23    C149    1.459   .     S
O24    C34     1.268   .     A
C25    O32     1.265   .     A
C25    O33     1.278   .     A
C25    C263    1.461   .     S
C26    O30     1.269   .     A
C26    O31     1.278   .     A
C26    C281    1.470   .     S
C27    O38     1.270   .     A
C27    O39     1.260   .     A
C27    C83     1.460   .     S
C34    O35     1.276   .     A
C34    C113    1.471   .     S
C40    O48     1.217   .     D
C40    O49     1.394   .     S
C40    C257    1.467   .     S
Er41   O51     2.149   .     S
Er41   O53     2.222   .     S
Er41   O55     2.188   .     S
Er41   O57     2.125   .     S
Er41   O58     2.170   .     S
Er41   O59     2.203   .     S
Er42   O44     2.159   .     S
Er42   O49     2.231   .     S
Er42   O50     2.196   .     S
Er42   O52     2.138   .     S
Er42   O56     2.221   .     S
C43    O56     1.281   .     A
C43    O57     1.263   .     A
C43    C227    1.472   .     S
O44    C54     1.261   .     A
C45    O52     1.264   .     A
C45    O53     1.284   .     A
C45    C137    1.459   .     S
C46    O50     1.277   .     A
C46    O51     1.268   .     A
C46    C119    1.472   .     S
C47    O58     1.259   .     A
C47    O59     1.272   .     A
C47    C155    1.454   .     S
C54    O55     1.268   .     A
C54    C221    1.464   .     S
C60    O68     1.216   .     D
C60    O69     1.390   .     S
C60    C209    1.465   .     S
Er61   O71     2.164   .     S
Er61   O73     2.207   .     S
Er61   O75     2.221   .     S
Er61   O77     2.147   .     S
Er61   O78     2.213   .     S
Er61   O79     2.172   .     S
Er62   O64     2.148   .     S
Er62   O69     2.223   .     S
Er62   O70     2.185   .     S
Er62   O72     2.140   .     S
Er62   O76     2.203   .     S
C63    O76     1.279   .     A
C63    O77     1.267   .     A
C63    C131    1.466   .     S
O64    C74     1.266   .     A
C65    O72     1.261   .     A
C65    O73     1.274   .     A
C65    C101    1.469   .     S
C66    O70     1.272   .     A
C66    O71     1.270   .     A
C66    C203    1.472   .     S
C67    O78     1.273   .     A
C67    O79     1.259   .     A
C67    C293    1.467   .     S
C74    O75     1.283   .     A
C74    C173    1.470   .     S
C80    N81     1.357   .     A
C80    N85     1.357   1_554 A
C80    C86     1.465   1_554 S
N81    N82     1.332   .     A
N82    C83     1.356   .     A
C83    N84     1.357   1_554 A
N84    N85     1.333   .     A
N84    C83     1.357   1_556 A
N85    C80     1.357   1_556 A
C86    N87     1.358   .     A
C86    C80     1.465   1_556 S
C86    N91     1.356   1_556 A
N87    N88     1.333   .     A
N88    C89     1.357   .     A
C89    C92     1.465   .     S
C89    N90     1.357   1_556 A
N90    N91     1.331   .     A
N90    C89     1.357   1_554 A
N91    C86     1.356   1_554 A
C92    N93     1.357   .     A
C92    N97     1.358   .     A
N93    N94     1.331   .     A
N94    C95     1.357   .     A
C95    N96     1.357   .     A
N96    N97     1.333   .     A
C98    N99     1.355   .     A
C98    N103    1.361   .     A
C98    C104    1.471   .     S
N99    N100    1.331   .     A
N100   C101    1.358   .     A
C101   N102    1.357   .     A
N102   N103    1.335   .     A
C104   N105    1.355   .     A
C104   N109    1.361   .     A
N105   N106    1.331   .     A
N106   C107    1.358   .     A
C107   N108    1.358   .     A
C107   C110    1.471   .     S
N108   N109    1.335   .     A
C110   N115    1.353   .     A
C110   N111    1.363   1_545 A
N111   N112    1.338   .     A
N111   C110    1.363   1_565 A
N112   C113    1.360   .     A
C113   N114    1.357   .     A
N114   N115    1.328   1_565 A
N115   N114    1.328   1_545 A
C116   N117    1.354   .     A
C116   N121    1.361   .     A
C116   C122    1.470   .     S
N117   N118    1.328   .     A
N118   C119    1.357   .     A
C119   N120    1.360   .     A
N120   N121    1.338   .     A
C122   N123    1.358   .     A
C122   N127    1.358   .     A
N123   N124    1.336   .     A
N124   C125    1.361   .     A
C125   N126    1.355   .     A
C125   C128    1.471   .     S
N126   N127    1.331   .     A
C128   N129    1.361   .     A
C128   N133    1.356   .     A
N129   N130    1.334   .     A
N130   C131    1.357   .     A
C131   N132    1.359   .     A
N132   N133    1.331   .     A
C134   N135    1.358   .     A
C134   N139    1.356   .     A
C134   C140    1.467   .     S
N135   N136    1.333   .     A
N136   C137    1.358   .     A
C137   N138    1.357   .     A
N138   N139    1.330   .     A
C140   N141    1.358   .     A
C140   N145    1.358   1_545 A
N141   N142    1.331   .     A
N142   C143    1.358   1_545 A
C143   N144    1.358   .     A
C143   C146    1.467   .     S
C143   N142    1.358   1_565 A
N144   N145    1.332   .     A
N145   C140    1.358   1_565 A
C146   N147    1.359   .     A
C146   N151    1.356   .     A
N147   N148    1.333   1_556 A
N148   C149    1.358   .     A
N148   N147    1.333   1_554 A
C149   N150    1.357   .     A
N150   N151    1.330   1_554 A
N151   N150    1.330   1_556 A
C152   N153    1.356   .     A
C152   N157    1.359   .     A
C152   C158    1.461   .     S
N153   N154    1.329   .     A
N154   C155    1.355   .     A
C155   N156    1.357   .     A
N156   N157    1.332   .     A
C158   N159    1.357   .     A
C158   N163    1.357   1_545 A
N159   N160    1.332   1_545 A
N160   C161    1.357   .     A
N160   N159    1.332   1_565 A
C161   N162    1.356   .     A
C161   C164    1.462   .     S
N162   N163    1.331   .     A
N163   C158    1.357   1_565 A
C164   N165    1.357   .     A
C164   N169    1.357   .     A
N165   N166    1.331   .     A
N166   C167    1.357   .     A
C167   N168    1.357   .     A
N168   N169    1.331   .     A
C170   N171    1.362   .     A
C170   N175    1.355   .     A
C170   C176    1.475   .     S
N171   N172    1.338   .     A
N172   C173    1.361   .     A
C173   N174    1.356   .     A
N174   N175    1.328   .     A
C176   N177    1.357   .     A
C176   N181    1.361   .     A
N177   N178    1.329   .     A
N178   C179    1.356   .     A
C179   N180    1.361   .     A
C179   C182    1.475   .     S
N180   N181    1.338   .     A
C182   N183    1.360   .     A
C182   N187    1.357   .     A
N183   N184    1.337   .     A
N184   C185    1.360   .     A
C185   N186    1.357   .     A
N186   N187    1.330   .     A
C188   N189    1.361   .     A
C188   N193    1.355   .     A
C188   C194    1.473   .     S
N189   N190    1.338   1_554 A
N190   C191    1.361   .     A
N190   N189    1.338   1_556 A
C191   N192    1.356   .     A
N192   N193    1.328   1_556 A
N193   N192    1.328   1_554 A
C194   N195    1.356   .     A
C194   N199    1.360   .     A
N195   N196    1.329   .     A
N196   C197    1.355   .     A
C197   N198    1.361   .     A
C197   C200    1.473   .     S
N198   N199    1.337   .     A
C200   N201    1.360   .     A
C200   N205    1.357   .     A
N201   N202    1.337   .     A
N202   C203    1.361   .     A
C203   N204    1.356   .     A
N204   N205    1.330   .     A
C206   N207    1.359   .     A
C206   N211    1.356   .     A
C206   C212    1.466   .     S
N207   N208    1.335   .     A
N208   C209    1.358   .     A
C209   N210    1.356   .     A
N210   N211    1.331   .     A
C212   N213    1.357   .     A
C212   N217    1.358   .     A
N213   N214    1.332   .     A
N214   C215    1.358   .     A
C215   N216    1.358   .     A
C215   C218    1.466   .     S
N216   N217    1.333   .     A
C218   N219    1.359   .     A
C218   N223    1.356   1_455 A
N219   N220    1.334   1_455 A
N220   C221    1.358   .     A
N220   N219    1.334   1_655 A
C221   N222    1.357   .     A
N222   N223    1.331   .     A
N223   C218    1.356   1_655 A
C224   N225    1.350   .     A
C224   N229    1.365   .     A
C224   C230    1.468   .     S
N225   N226    1.326   1_565 A
N226   C227    1.357   .     A
N226   N225    1.326   1_545 A
C227   N228    1.360   .     A
N228   N229    1.340   1_545 A
N229   N228    1.340   1_565 A
C230   N231    1.355   .     A
C230   N235    1.360   .     A
N231   N232    1.333   1_655 A
N232   N231    1.333   1_455 A
N232   C233    1.361   1_455 A
C233   N234    1.354   .     A
C233   N232    1.361   1_655 A
C233   C236    1.468   1_655 S
N234   N235    1.332   .     A
C236   N237    1.363   .     A
C236   N241    1.352   .     A
C236   C233    1.468   1_455 S
N237   N238    1.337   .     A
N238   C239    1.359   .     A
C239   N240    1.358   .     A
N240   N241    1.327   .     A
C242   N247    1.360   .     A
C242   N243    1.356   1_455 A
C242   C248    1.467   1_455 S
N243   C242    1.356   1_655 A
N243   N244    1.331   1_655 A
N244   C245    1.357   .     A
N244   N243    1.331   1_455 A
C245   N246    1.357   .     A
N246   N247    1.333   .     A
C248   N253    1.360   .     A
C248   C242    1.467   1_655 S
C248   N249    1.356   1_655 A
N249   N250    1.330   .     A
N249   C248    1.356   1_455 A
N250   C251    1.358   1_455 A
C251   N252    1.358   .     A
C251   C254    1.467   .     S
C251   N250    1.358   1_655 A
N252   N253    1.333   .     A
C254   N255    1.360   .     A
C254   N259    1.356   .     A
N255   N256    1.334   .     A
N256   C257    1.359   .     A
C257   N258    1.357   .     A
N258   N259    1.329   .     A
C260   N261    1.359   .     A
C260   N265    1.356   .     A
C260   C266    1.469   .     S
N261   N262    1.334   .     A
N262   C263    1.358   .     A
C263   N264    1.357   .     A
N264   N265    1.331   .     A
C266   N267    1.357   .     A
C266   N271    1.358   1_554 A
N267   N268    1.332   1_554 A
N268   C269    1.357   .     A
N268   N267    1.332   1_556 A
C269   N270    1.358   .     A
C269   C272    1.469   .     S
N270   N271    1.333   .     A
N271   C266    1.358   1_556 A
C272   N273    1.358   .     A
C272   N277    1.356   .     A
N273   N274    1.334   1_655 A
N274   C275    1.358   .     A
N274   N273    1.334   1_455 A
C275   N276    1.357   .     A
N276   N277    1.331   1_455 A
N277   N276    1.331   1_655 A
C278   N279    1.361   .     A
C278   N283    1.355   .     A
C278   C284    1.469   .     S
N279   N280    1.338   .     A
N280   C281    1.360   .     A
C281   N282    1.355   .     A
N282   N283    1.328   .     A
C284   N285    1.355   .     A
C284   N289    1.360   .     A
N285   N286    1.329   .     A
N286   C287    1.355   .     A
C287   N288    1.360   .     A
C287   C290    1.470   .     S
N288   N289    1.337   .     A
C290   N291    1.360   .     A
C290   N295    1.355   .     A
N291   N292    1.337   .     A
N292   C293    1.360   .     A
C293   N294    1.355   .     A
N294   N295    1.329   .     A
