data_lcy+N248+E14
_audit_creation_date              2025-01-21
_audit_creation_method            'Materials Studio'
_symmetry_space_group_name_H-M    'P1'
_symmetry_Int_Tables_number       1
_symmetry_cell_setting            triclinic
loop_
_symmetry_equiv_pos_as_xyz
  x,y,z
_cell_length_a                    19.6405
_cell_length_b                    16.6434
_cell_length_c                    18.3467
_cell_angle_alpha                 92.7355
_cell_angle_beta                  88.5979
_cell_angle_gamma                 88.6459
loop_
_atom_site_label
_atom_site_type_symbol
_atom_site_fract_x
_atom_site_fract_y
_atom_site_fract_z
_atom_site_U_iso_or_equiv
_atom_site_adp_type
_atom_site_occupancy
O0     O     0.16817   0.69485   0.97725   0.00000  Uiso   1.00
Yb1    Yb    0.15442   0.51544   0.87269   0.00000  Uiso   1.00
C2     C     0.23757   0.52997   0.76804   0.00000  Uiso   1.00
Yb3    Yb    0.07023   0.63391   0.96839   0.00000  Uiso   1.00
O4     O     0.22463   0.61502   0.88948   0.00000  Uiso   1.00
C5     C     0.08864   0.68519   0.83275   0.00000  Uiso   1.00
C6     C     0.22169   0.67650   0.93622   0.00000  Uiso   1.00
O7     O    -0.00890   0.72529  -0.02121   0.00000  Uiso   1.00
C8     C     0.94341   0.67482  -0.02844   0.00000  Uiso   1.00
O9     O     0.21918   0.45133   0.94367   0.00000  Uiso   1.00
O10    O     0.13196   0.52901   0.98260   0.00000  Uiso   1.00
O11    O     0.07183   0.44036   0.88072   0.00000  Uiso   1.00
O12    O     0.96453   0.60139   0.95898   0.00000  Uiso   1.00
O13    O    -0.00359   0.53691   0.93114   0.00000  Uiso   1.00
C14    C     0.19039   0.48404   0.99817   0.00000  Uiso   1.00
C15    C     0.01132   0.46486   0.90070   0.00000  Uiso   1.00
O16    O     0.18937   0.48060   0.76691   0.00000  Uiso   1.00
O17    O     0.24107   0.57563   0.82693   0.00000  Uiso   1.00
O18    O     0.07326   0.72461   0.88698   0.00000  Uiso   1.00
O19    O     0.08088   0.60595   0.84514   0.00000  Uiso   1.00
O20    O     0.73281   0.94852   0.02453   0.00000  Uiso   1.00
Yb21   Yb    0.56817   0.90238   0.02933   0.00000  Uiso   1.00
C22    C     0.47252   0.85165   0.95271   0.00000  Uiso   1.00
Yb23   Yb    0.68131   0.94642   0.13213   0.00000  Uiso   1.00
O24    O     0.63843   0.95098   0.95237   0.00000  Uiso   1.00
C25    C     0.57210   1.01863   0.17022   0.00000  Uiso   1.00
C26    C     0.70335   0.95474  -0.03823   0.00000  Uiso   1.00
O27    O     0.73553   0.03419   0.19343   0.00000  Uiso   1.00
C28    C     0.76682   0.97770   0.22553   0.00000  Uiso   1.00
O29    O     0.61734   0.79077  -0.02385   0.00000  Uiso   1.00
O30    O     0.64845   0.84108   0.07875   0.00000  Uiso   1.00
O31    O     0.51371   0.85360   0.11605   0.00000  Uiso   1.00
O32    O     0.76141   0.90668   0.19735   0.00000  Uiso   1.00
O33    O     0.61785   0.83749   0.16238   0.00000  Uiso   1.00
C34    C     0.66472   0.79188   0.01826   0.00000  Uiso   1.00
C35    C     0.55263   0.82047   0.16108   0.00000  Uiso   1.00
O36    O     0.52701   0.80962  -0.03921   0.00000  Uiso   1.00
O37    O     0.47652   0.92595   0.97244   0.00000  Uiso   1.00
O38    O     0.60387   0.97765   0.21286   0.00000  Uiso   1.00
O39    O     0.59423   1.00913   0.09703   0.00000  Uiso   1.00
O40    O     0.94685   0.15849   0.71213   0.00000  Uiso   1.00
Yb41   Yb    0.83995   0.13706   0.60736   0.00000  Uiso   1.00
C42    C     0.72690   0.19555   0.57608   0.00000  Uiso   1.00
Yb43   Yb    0.98043   0.04841   0.63516   0.00000  Uiso   1.00
O44    O     0.87537   0.24522   0.66068   0.00000  Uiso   1.00
C45    C     0.87243   0.00994   0.71186   0.00000  Uiso   1.00
C46    C     0.91551   0.22927   0.71264   0.00000  Uiso   1.00
O47    O     1.04219  -0.00906   0.70843   0.00000  Uiso   1.00
C48    C     1.05764   0.93657   0.65729   0.00000  Uiso   1.00
O49    O     0.90416   0.23779   0.57710   0.00000  Uiso   1.00
O50    O     0.93520   0.11357   0.54713   0.00000  Uiso   1.00
O51    O     0.80699   0.02273   0.57115   0.00000  Uiso   1.00
O52    O     1.03809   0.94953   0.59161   0.00000  Uiso   1.00
O53    O     0.91289   0.04139   0.53423   0.00000  Uiso   1.00
C54    C     0.94812   0.19537   0.54464   0.00000  Uiso   1.00
C55    C     0.85253   0.01199   0.52191   0.00000  Uiso   1.00
O56    O     0.77705   0.18834   0.53022   0.00000  Uiso   1.00
O57    O     0.73996   0.17759   0.64155   0.00000  Uiso   1.00
O58    O     0.90699  -0.03853   0.67614   0.00000  Uiso   1.00
O59    O     0.89189   0.08603   0.69999   0.00000  Uiso   1.00
O60    O     0.41950   0.25008   0.44907   0.00000  Uiso   1.00
Yb61   Yb    0.42078   0.43951   0.38813   0.00000  Uiso   1.00
C62    C     0.45981   0.54255   0.30359   0.00000  Uiso   1.00
Yb63   Yb    0.32896   0.28958   0.39356   0.00000  Uiso   1.00
O64    O     0.47047   0.37107   0.46844   0.00000  Uiso   1.00
C65    C     0.32090   0.39435   0.50793   0.00000  Uiso   1.00
C66    C     0.46730   0.29453   0.47505   0.00000  Uiso   1.00
O67    O     0.24822   0.24619   0.45731   0.00000  Uiso   1.00
C68    C     0.20276   0.27743   0.41841   0.00000  Uiso   1.00
O69    O     0.49958   0.37037   0.31967   0.00000  Uiso   1.00
O70    O     0.39863   0.33632   0.31734   0.00000  Uiso   1.00
O71    O     0.34692   0.46309   0.30179   0.00000  Uiso   1.00
O72    O     0.22530   0.31568   0.36309   0.00000  Uiso   1.00
O73    O     0.26535   0.36684   0.32313   0.00000  Uiso   1.00
C74    C     0.46391   0.31596   0.30052   0.00000  Uiso   1.00
C75    C     0.29037   0.42596   0.28576   0.00000  Uiso   1.00
O76    O     0.39648   0.52109   0.30595   0.00000  Uiso   1.00
O77    O     0.50105   0.50149   0.34063   0.00000  Uiso   1.00
O78    O     0.30914   0.32427   0.51071   0.00000  Uiso   1.00
O79    O     0.32751   0.41321   0.43786   0.00000  Uiso   1.00
C80    C     0.40698   0.73142   0.91364   0.00000  Uiso   1.00
C81    C     0.40682   0.81307   0.93618   0.00000  Uiso   1.00
C82    C     0.34422   0.85104   0.95870   0.00000  Uiso   1.00
C83    C     0.28348   0.80750   0.96034   0.00000  Uiso   1.00
C84    C     0.28434   0.72525   0.93895   0.00000  Uiso   1.00
C85    C     0.34682   0.68838   0.91495   0.00000  Uiso   1.00
H86    H     0.45421   0.69944   0.89795   0.00000  Uiso   1.00
H87    H     0.34281   0.91348   0.97827   0.00000  Uiso   1.00
H88    H     0.23631   0.83815   0.97823   0.00000  Uiso   1.00
H89    H     0.34988   0.62486   0.89891   0.00000  Uiso   1.00
C90    C     0.44920   0.17027   0.26637   0.00000  Uiso   1.00
C91    C     0.48739   0.24059   0.26183   0.00000  Uiso   1.00
C92    C     0.54977   0.23723   0.22314   0.00000  Uiso   1.00
C93    C     0.57424   0.16462   0.19047   0.00000  Uiso   1.00
C94    C     0.53783   0.09366   0.19731   0.00000  Uiso   1.00
C95    C     0.47505   0.09656   0.23545   0.00000  Uiso   1.00
H96    H     0.40071   0.17188   0.29612   0.00000  Uiso   1.00
H97    H     0.57968   0.29066   0.21888   0.00000  Uiso   1.00
H98    H     0.62344   0.16307   0.16225   0.00000  Uiso   1.00
H99    H     0.44695   0.04213   0.24245   0.00000  Uiso   1.00
C100   C     0.60338   0.23128   0.60305   0.00000  Uiso   1.00
C101   C     0.65811   0.21759   0.55264   0.00000  Uiso   1.00
C102   C     0.64628   0.22030   0.47755   0.00000  Uiso   1.00
C103   C     0.58178   0.23917   0.45334   0.00000  Uiso   1.00
C104   C     0.52778   0.25622   0.50337   0.00000  Uiso   1.00
C105   C     0.53846   0.25208   0.57844   0.00000  Uiso   1.00
H106   H     0.61116   0.22761   0.66111   0.00000  Uiso   1.00
H107   H     0.68734   0.20912   0.43736   0.00000  Uiso   1.00
H108   H     0.57450   0.24378   0.39535   0.00000  Uiso   1.00
H109   H     0.49730   0.26676   0.61773   0.00000  Uiso   1.00
C110   C     0.78073   0.05379   0.80075   0.00000  Uiso   1.00
C111   C     0.82201  -0.00895   0.76844   0.00000  Uiso   1.00
C112   C     0.82232  -0.08495   0.79886   0.00000  Uiso   1.00
C113   C     0.78461  -0.09617   0.86313   0.00000  Uiso   1.00
C114   C     0.74584  -0.03228   0.89685   0.00000  Uiso   1.00
C115   C     0.74198   0.04170   0.86380   0.00000  Uiso   1.00
H116   H     0.77975   0.11288   0.77816   0.00000  Uiso   1.00
H117   H     0.85259  -0.13472   0.77396   0.00000  Uiso   1.00
H118   H     0.78561   0.84536   0.88656   0.00000  Uiso   1.00
H119   H     0.71007   0.09047   0.88774   0.00000  Uiso   1.00
C120   C     0.88155  -0.01135   0.38845   0.00000  Uiso   1.00
C121   C     0.83232  -0.00550   0.44593   0.00000  Uiso   1.00
C122   C     0.76281  -0.00377   0.42893   0.00000  Uiso   1.00
C123   C     0.74303  -0.00544   0.35646   0.00000  Uiso   1.00
C124   C     0.79200  -0.01063   0.29943   0.00000  Uiso   1.00
C125   C     0.86148  -0.01542   0.31543   0.00000  Uiso   1.00
H126   H     0.93547  -0.01125   0.40008   0.00000  Uiso   1.00
H127   H     0.72355   0.00199   0.47155   0.00000  Uiso   1.00
H128   H     0.68922   0.99610   0.34461   0.00000  Uiso   1.00
H129   H     0.89981  -0.02145   0.27183   0.00000  Uiso   1.00
C130   C     0.27690   0.51947   0.57350   0.00000  Uiso   1.00
C131   C     0.31995   0.45075   0.57153   0.00000  Uiso   1.00
C132   C     0.35249   0.42876   0.63500   0.00000  Uiso   1.00
C133   C     0.33553   0.46900   0.70168   0.00000  Uiso   1.00
C134   C     0.28451   0.52977   0.70540   0.00000  Uiso   1.00
C135   C     0.25883   0.55868   0.64057   0.00000  Uiso   1.00
H136   H     0.25171   0.53719   0.52464   0.00000  Uiso   1.00
H137   H     0.38606   0.37615   0.63389   0.00000  Uiso   1.00
H138   H     0.35447   0.44454   0.75123   0.00000  Uiso   1.00
H139   H     0.21839   0.60438   0.64286   0.00000  Uiso   1.00
C140   C     0.16701   0.46072   0.13145   0.00000  Uiso   1.00
C141   C     0.21337   0.47227   0.07321   0.00000  Uiso   1.00
C142   C     0.28316   0.47139   0.08662   0.00000  Uiso   1.00
C143   C     0.30653   0.45894   0.15647   0.00000  Uiso   1.00
C144   C     0.26089   0.44540   0.21478   0.00000  Uiso   1.00
C145   C     0.19074   0.44574   0.20168   0.00000  Uiso   1.00
H146   H     0.11277   0.46103   0.12234   0.00000  Uiso   1.00
H147   H     0.31984   0.48061   0.04284   0.00000  Uiso   1.00
H148   H     0.36109   0.45720   0.16427   0.00000  Uiso   1.00
H149   H     0.15460   0.43486   0.24545   0.00000  Uiso   1.00
C150   C     0.08804   0.21915   0.40273   0.00000  Uiso   1.00
C151   C     0.13086   0.27208   0.44064   0.00000  Uiso   1.00
C152   C     0.10995   0.30554   0.50956   0.00000  Uiso   1.00
C153   C     0.04807   0.28437   0.54174   0.00000  Uiso   1.00
C154   C     0.00753   0.22708   0.50638   0.00000  Uiso   1.00
C155   C     0.02722   0.19555   0.43620   0.00000  Uiso   1.00
H156   H     0.10401   0.19152   0.35006   0.00000  Uiso   1.00
H157   H     0.14329   0.34501   0.54005   0.00000  Uiso   1.00
H158   H     0.03402   0.30866   0.59605   0.00000  Uiso   1.00
H159   H     0.99631   0.15117   0.40812   0.00000  Uiso   1.00
C160   C     1.04343   0.79034   0.66727   0.00000  Uiso   1.00
C161   C     0.08525   0.85770   0.67689   0.00000  Uiso   1.00
C162   C     0.14071   0.85325   0.72343   0.00000  Uiso   1.00
C163   C     0.14964   0.78619   0.76566   0.00000  Uiso   1.00
C164   C     0.10196   0.72426   0.76402   0.00000  Uiso   1.00
C165   C     1.05144   0.72413   0.71110   0.00000  Uiso   1.00
H166   H     0.99962   0.79325   0.63263   0.00000  Uiso   1.00
H167   H     0.17289   0.90474   0.73247   0.00000  Uiso   1.00
H168   H     0.18796   0.78820   0.80716   0.00000  Uiso   1.00
H169   H     1.01298   0.67845   0.71044   0.00000  Uiso   1.00
C170   C    -0.02548   0.32591   0.88968   0.00000  Uiso   1.00
C171   C     0.95877   0.40757   0.87992   0.00000  Uiso   1.00
C172   C     0.91509   0.42761   0.82370   0.00000  Uiso   1.00
C173   C     0.89745   0.36848   0.77087   0.00000  Uiso   1.00
C174   C     0.92302   0.28884   0.77439   0.00000  Uiso   1.00
C175   C    -0.04201   0.26723   0.83662   0.00000  Uiso   1.00
H176   H     0.00813   0.30914   0.93288   0.00000  Uiso   1.00
H177   H     0.90260   0.49023   0.81459   0.00000  Uiso   1.00
H178   H     0.86871   0.38644   0.72434   0.00000  Uiso   1.00
H179   H    -0.02347   0.20595   0.84206   0.00000  Uiso   1.00
C180   C     0.74998   0.69375  -0.05008   0.00000  Uiso   1.00
C181   C     0.73305   0.75173   0.00646   0.00000  Uiso   1.00
C182   C     0.78548   0.77975   0.05069   0.00000  Uiso   1.00
C183   C     0.85300   0.75537   0.03803   0.00000  Uiso   1.00
C184   C     0.87064   0.69891  -0.01827   0.00000  Uiso   1.00
C185   C     0.81853   0.66629  -0.06148   0.00000  Uiso   1.00
H186   H     0.71088   0.67070   0.91449   0.00000  Uiso   1.00
H187   H     0.77476   0.82409   0.09374   0.00000  Uiso   1.00
H188   H     0.89162   0.78062   0.07299   0.00000  Uiso   1.00
H189   H     0.83148   0.62161   0.89493   0.00000  Uiso   1.00
C190   C     0.56700   0.71622   0.25216   0.00000  Uiso   1.00
C191   C     0.52682   0.75225   0.20059   0.00000  Uiso   1.00
C192   C     0.46394   0.71827   0.18195   0.00000  Uiso   1.00
C193   C     0.44249   0.64850   0.21392   0.00000  Uiso   1.00
C194   C     0.48336   0.61224   0.26509   0.00000  Uiso   1.00
C195   C     0.54580   0.64637   0.28389   0.00000  Uiso   1.00
H196   H     0.61518   0.74138   0.26748   0.00000  Uiso   1.00
H197   H     0.43199   0.74446   0.14143   0.00000  Uiso   1.00
H198   H     0.39411   0.62287   0.19876   0.00000  Uiso   1.00
H199   H     0.57749   0.62038   0.32454   0.00000  Uiso   1.00
loop_
_geom_bond_atom_site_label_1
_geom_bond_atom_site_label_2
_geom_bond_distance
_geom_bond_site_symmetry_2
_ccdc_geom_bond_type
O0     C6      1.300   .     A
O0     Yb3     2.201   .     S
Yb1    Yb3     3.013   .     S
Yb1    O4      2.196   .     S
Yb1    O9      2.145   .     S
Yb1    O10     2.054   .     S
Yb1    O11     2.077   .     S
Yb1    O16     2.093   .     S
Yb1    O17     2.167   .     S
Yb1    O19     2.149   .     S
C2     O16     1.268   .     A
C2     O17     1.295   .     A
C2     C134    1.455   .     S
Yb3    O10     2.132   .     S
Yb3    O13     2.287   .     S
Yb3    O18     2.174   .     S
Yb3    O19     2.290   .     S
Yb3    O7      2.147   1_556 S
Yb3    O12     2.167   1_455 S
O4     C6      1.303   .     A
C5     O18     1.194   .     D
C5     O19     1.361   .     S
C5     C164    1.467   .     S
C6     C84     1.490   .     S
O7     Yb3     2.147   1_554 S
O7     C8      1.278   1_455 A
C8     C184    1.480   .     S
C8     O7      1.278   1_655 A
C8     O12     1.290   1_554 A
O9     C14     1.234   .     D
O10    C14     1.398   .     S
O11    C15     1.286   .     A
O12    Yb3     2.167   1_655 S
O12    C8      1.290   1_556 A
O13    C15     1.322   .     A
C14    C141    1.480   1_556 S
C15    C171    1.467   1_455 S
O20    C26     1.308   .     A
O20    Yb23    2.198   .     S
Yb21   Yb23    3.030   .     S
Yb21   O29     2.243   .     S
Yb21   O30     2.105   .     S
Yb21   O31     2.101   .     S
Yb21   O36     2.131   .     S
Yb21   O39     2.197   .     S
Yb21   O24     2.149   1_554 S
Yb21   O37     2.140   1_554 S
C22    O37     1.277   .     A
C22    C81     1.486   .     S
C22    O36     1.280   1_556 A
Yb23   O30     2.090   .     S
Yb23   O32     2.113   .     S
Yb23   O33     2.306   .     S
Yb23   O38     2.135   .     S
Yb23   O39     2.113   .     S
Yb23   O27     2.123   1_565 S
O24    Yb21    2.149   1_556 S
O24    C26     1.294   1_556 A
C25    O38     1.234   .     D
C25    O39     1.402   .     S
C25    C94     1.464   1_565 S
C26    O24     1.294   1_554 A
C26    C114    1.465   1_564 S
O27    Yb23    2.123   1_545 S
O27    C28     1.285   1_545 A
C28    O32     1.275   .     A
C28    O27     1.285   1_565 A
C28    C124    1.460   1_565 S
O29    C34     1.224   .     D
O30    C34     1.374   .     S
O31    C35     1.275   .     A
O33    C35     1.319   .     A
C34    C181    1.491   .     S
C35    C191    1.469   .     S
O36    C22     1.280   1_554 A
O37    Yb21    2.140   1_556 S
O40    C46     1.316   .     A
O40    Yb43    2.332   .     S
Yb41   Yb43    3.162   .     S
Yb41   O44     2.146   .     S
Yb41   O49     2.205   .     S
Yb41   O50     2.167   .     S
Yb41   O51     2.107   .     S
Yb41   O56     2.100   .     S
Yb41   O57     2.131   .     S
Yb41   O59     2.198   .     S
C42    O56     1.279   .     A
C42    O57     1.282   .     A
C42    C101    1.471   .     S
Yb43   O47     2.084   .     S
Yb43   O50     2.183   .     S
Yb43   O53     2.304   .     S
Yb43   O58     2.211   .     S
Yb43   O59     2.146   .     S
Yb43   O52     2.091   1_545 S
O44    C46     1.285   .     A
C45    O58     1.201   .     D
C45    O59     1.357   .     S
C45    C111    1.467   .     S
C46    C174    1.482   .     S
O47    C48     1.297   1_545 A
C48    O52     1.300   .     A
C48    O47     1.297   1_565 A
C48    C161    1.472   1_655 S
O49    C54     1.227   .     D
O50    C54     1.393   .     S
O51    C55     1.259   .     A
O52    Yb43    2.091   1_565 S
O53    C55     1.314   .     A
C54    C154    1.469   1_655 S
C55    C121    1.476   .     S
O60    C66     1.295   .     A
O60    Yb63    2.175   .     S
Yb61   Yb63    3.117   .     S
Yb61   O64     2.144   .     S
Yb61   O69     2.232   .     S
Yb61   O70     2.162   .     S
Yb61   O71     2.216   .     S
Yb61   O76     2.132   .     S
Yb61   O77     2.098   .     S
Yb61   O79     2.091   .     S
C62    O76     1.303   .     A
C62    O77     1.277   .     A
C62    C194    1.465   .     S
Yb63   O67     2.109   .     S
Yb63   O70     2.120   .     S
Yb63   O72     2.164   .     S
Yb63   O73     2.246   .     S
Yb63   O78     2.221   .     S
Yb63   O79     2.175   .     S
O64    C66     1.288   .     A
C65    O78     1.198   .     D
C65    O79     1.342   .     S
C65    C131    1.462   .     S
C66    C104    1.454   .     S
O67    C68     1.274   .     A
C68    O72     1.298   .     A
C68    C151    1.466   .     S
O69    C74     1.202   .     D
O70    C74     1.343   .     S
O71    C75     1.316   .     A
O73    C75     1.323   .     A
C74    C91     1.470   .     S
C75    C144    1.484   .     S
C80    C81     1.401   .     A
C80    C85     1.396   .     A
C80    H86     1.084   .     S
C81    C82     1.413   .     A
C82    C83     1.411   .     A
C82    H87     1.083   .     S
C83    C84     1.406   .     A
C83    H88     1.083   .     S
C84    C85     1.410   .     A
C85    H89     1.084   .     S
C90    C91     1.410   .     A
C90    C95     1.405   .     A
C90    H96     1.085   .     S
C91    C92     1.399   .     A
C92    C93     1.393   .     A
C92    H97     1.082   .     S
C93    C94     1.404   .     A
C93    H98     1.084   .     S
C94    C95     1.402   .     A
C94    C25     1.464   1_545 S
C95    H99     1.083   .     S
C100   C101    1.408   .     A
C100   C105    1.404   .     A
C100   H106    1.084   .     S
C101   C102    1.405   .     A
C102   C103    1.387   .     A
C102   H107    1.086   .     S
C103   C104    1.400   .     A
C103   H108    1.083   .     S
C104   C105    1.403   .     A
C105   H109    1.085   .     S
C110   C111    1.406   .     A
C110   C115    1.394   .     A
C110   H116    1.085   .     S
C111   C112    1.407   .     A
C112   C113    1.400   .     A
C112   H117    1.084   .     S
C113   C114    1.403   .     A
C113   H118    1.082   1_545 S
C114   C115    1.400   .     A
C114   C26     1.465   1_546 S
C115   H119    1.083   .     S
H118   C113    1.082   1_565 S
C120   C121    1.411   .     A
C120   C125    1.405   .     A
C120   H126    1.085   .     S
C121   C122    1.408   .     A
C122   C123    1.393   .     A
C122   H127    1.084   .     S
C123   C124    1.402   .     A
C123   H128    1.084   1_545 S
C124   C125    1.404   .     A
C124   C28     1.460   1_545 S
C125   H129    1.084   .     S
H128   C123    1.084   1_565 S
C130   C131    1.405   .     A
C130   C135    1.399   .     A
C130   H136    1.084   .     S
C131   C132    1.402   .     A
C132   C133    1.396   .     A
C132   H137    1.083   .     S
C133   C134    1.405   .     A
C133   H138    1.084   .     S
C134   C135    1.405   .     A
C135   H139    1.085   .     S
C140   C141    1.410   .     A
C140   C145    1.412   .     A
C140   H146    1.082   .     S
C141   C142    1.398   .     A
C141   C14     1.480   1_554 S
C142   C143    1.395   .     A
C142   H147    1.085   .     S
C143   C144    1.409   .     A
C143   H148    1.084   .     S
C144   C145    1.404   .     A
C145   H149    1.083   .     S
C150   C151    1.404   .     A
C150   C155    1.403   .     A
C150   H156    1.086   .     S
C151   C152    1.405   .     A
C152   C153    1.398   .     A
C152   H157    1.085   .     S
C153   C154    1.402   .     A
C153   H158    1.084   .     S
C154   C155    1.409   .     A
C154   C54     1.469   1_455 S
C155   H159    1.086   1_455 S
H159   C155    1.086   1_655 S
C160   C165    1.403   .     A
C160   H166    1.084   .     S
C160   C161    1.412   1_655 A
C161   C162    1.403   .     A
C161   C160    1.412   1_455 A
C161   C48     1.472   1_455 S
C162   C163    1.399   .     A
C162   H167    1.086   .     S
C163   C164    1.409   .     A
C163   H168    1.084   .     S
C164   C165    1.405   1_455 A
C165   H169    1.084   .     S
C165   C164    1.405   1_655 A
C170   C175    1.395   .     A
C170   H176    1.086   .     S
C170   C171    1.407   1_455 A
C171   C172    1.405   .     A
C171   C170    1.407   1_655 A
C171   C15     1.467   1_655 S
C172   C173    1.403   .     A
C172   H177    1.087   .     S
C173   C174    1.411   .     A
C173   H178    1.085   .     S
C174   C175    1.404   1_655 A
C175   H179    1.085   .     S
C175   C174    1.404   1_455 A
C180   C181    1.411   .     A
C180   C185    1.419   .     A
C180   H186    1.084   1_554 S
C181   C182    1.401   .     A
C182   C183    1.388   .     A
C182   H187    1.069   .     S
C183   C184    1.394   .     A
C183   H188    1.085   .     S
C184   C185    1.413   .     A
C185   H189    1.087   1_554 S
H186   C180    1.084   1_556 S
H189   C185    1.087   1_556 S
C190   C191    1.395   .     A
C190   C195    1.393   .     A
C190   H196    1.082   .     S
C191   C192    1.413   .     A
C192   C193    1.395   .     A
C192   H197    1.085   .     S
C193   C194    1.399   .     A
C193   H198    1.088   .     S
C194   C195    1.407   .     A
C195   H199    1.082   .     S
