data_lcy+N155+E14
_audit_creation_date              2025-01-21
_audit_creation_method            'Materials Studio'
_symmetry_space_group_name_H-M    'P1'
_symmetry_Int_Tables_number       1
_symmetry_cell_setting            triclinic
loop_
_symmetry_equiv_pos_as_xyz
  x,y,z
_cell_length_a                    19.7254
_cell_length_b                    19.7195
_cell_length_c                    16.4320
_cell_angle_alpha                 93.3497
_cell_angle_beta                  102.7597
_cell_angle_gamma                 95.1958
loop_
_atom_site_label
_atom_site_type_symbol
_atom_site_fract_x
_atom_site_fract_y
_atom_site_fract_z
_atom_site_U_iso_or_equiv
_atom_site_adp_type
_atom_site_occupancy
C0     C     0.21993   0.58354   0.76973   0.00000  Uiso   1.00
Ho1    Ho    0.11711   0.63816   0.80705   0.00000  Uiso   1.00
C2     C     0.96046   0.68264  -0.01326   0.00000  Uiso   1.00
Ho3    Ho    0.08545   0.71412   0.95603   0.00000  Uiso   1.00
O4     O     0.19281   0.56274   0.82987   0.00000  Uiso   1.00
O5     O     0.19513   0.63512   0.73622   0.00000  Uiso   1.00
O6     O     0.03494   0.55815   0.75384   0.00000  Uiso   1.00
O7     O     0.03955   0.61967   0.87076   0.00000  Uiso   1.00
C8     C     0.01054   0.55995   0.81676   0.00000  Uiso   1.00
C9     C     0.21377   0.76577   0.94862   0.00000  Uiso   1.00
O10    O     0.16493   0.57506   0.91321   0.00000  Uiso   1.00
O11    O     0.13453   0.63440   1.02262   0.00000  Uiso   1.00
O12    O     0.00803   0.72375   0.03222   0.00000  Uiso   1.00
O13    O     0.98069   0.65445   0.92652   0.00000  Uiso   1.00
O14    O     0.18322   0.78679   1.00053   0.00000  Uiso   1.00
O15    O     0.17218   0.71600   0.89483   0.00000  Uiso   1.00
O16    O     0.04044   0.77931   0.85958   0.00000  Uiso   1.00
O17    O     0.05956   0.71815   0.74565   0.00000  Uiso   1.00
C18    C     0.03891   0.77010   0.78072   0.00000  Uiso   1.00
C19    C     0.16086   0.58376   0.99209   0.00000  Uiso   1.00
C20    C     0.55449   0.68946   0.21417   0.00000  Uiso   1.00
Ho21   Ho    0.60063   0.80080   0.15505   0.00000  Uiso   1.00
C22    C     0.70800  -0.00887   0.98043   0.00000  Uiso   1.00
Ho23   Ho    0.65764   0.90318   0.06729   0.00000  Uiso   1.00
O24    O     0.52336   0.71237   0.14603   0.00000  Uiso   1.00
O25    O     0.60516   0.73137   0.25659   0.00000  Uiso   1.00
O26    O     0.50714   0.74684   0.07356   0.00000  Uiso   1.00
O27    O     0.56154   0.83604   0.03336   0.00000  Uiso   1.00
C28    C     0.50289   0.78775   0.01977   0.00000  Uiso   1.00
C29    C     0.74608   0.92981   0.21124   0.00000  Uiso   1.00
O30    O     0.53885   0.88628   0.18650   0.00000  Uiso   1.00
O31    O     0.59244   0.96713   0.11890   0.00000  Uiso   1.00
O32    O     0.73854  -0.01724   0.05624   0.00000  Uiso   1.00
O33    O     0.64936   0.95533   0.95364   0.00000  Uiso   1.00
O34    O     0.75113   0.95967   0.14879   0.00000  Uiso   1.00
O35    O     0.69251   0.87502   0.19499   0.00000  Uiso   1.00
O36    O     0.71449   0.82186   0.02816   0.00000  Uiso   1.00
O37    O     0.67076   0.73934   0.09979   0.00000  Uiso   1.00
C38    C     0.71172   0.76095   0.05284   0.00000  Uiso   1.00
C39    C     0.54650   0.94811   0.16068   0.00000  Uiso   1.00
C40    C     0.75242   0.23878   0.51719   0.00000  Uiso   1.00
Ho41   Ho    0.86955   0.20098   0.59304   0.00000  Uiso   1.00
C42    C     0.00521   0.03050   0.68012   0.00000  Uiso   1.00
Ho43   Ho    0.98683   0.15831   0.70735   0.00000  Uiso   1.00
O44    O     0.77461   0.18307   0.49433   0.00000  Uiso   1.00
O45    O     0.79852   0.27952   0.56829   0.00000  Uiso   1.00
O46    O     0.81709   0.12701   0.49488   0.00000  Uiso   1.00
O47    O     0.91267   0.10325   0.58920   0.00000  Uiso   1.00
C48    C     0.85838   0.08436   0.51348   0.00000  Uiso   1.00
C49    C     0.98458   0.28254   0.76938   0.00000  Uiso   1.00
O50    O     0.95230   0.22912   0.52002   0.00000  Uiso   1.00
O51    O     1.04195   0.19473   0.61723   0.00000  Uiso   1.00
O52    O     0.04680   0.07099   0.73500   0.00000  Uiso   1.00
O53    O     0.95703   1.05957   0.63568   0.00000  Uiso   1.00
O54    O     1.02988   0.24659   0.79960   0.00000  Uiso   1.00
O55    O     0.93892   0.25019   0.69939   0.00000  Uiso   1.00
O56    O     0.91051   0.12661   0.77588   0.00000  Uiso   1.00
O57    O     0.81400   0.15620   0.68583   0.00000  Uiso   1.00
C58    C     0.84412   0.12855   0.75280   0.00000  Uiso   1.00
C59    C     1.01802   0.21717   0.54557   0.00000  Uiso   1.00
C60    C     0.39112   0.17301   0.20417   0.00000  Uiso   1.00
Ho61   Ho    0.36708   0.28430   0.28626   0.00000  Uiso   1.00
C62    C     0.33959   0.47779   0.51958   0.00000  Uiso   1.00
Ho63   Ho    0.35532   0.39515   0.40065   0.00000  Uiso   1.00
O64    O     0.41777   0.19131   0.28058   0.00000  Uiso   1.00
O65    O     0.34964   0.21471   0.16859   0.00000  Uiso   1.00
O66    O     0.44284   0.22205   0.35644   0.00000  Uiso   1.00
O67    O     0.42272   0.31623   0.41458   0.00000  Uiso   1.00
C68    C     0.46319   0.26211   0.41842   0.00000  Uiso   1.00
C69    C     0.27275   0.43052   0.26760   0.00000  Uiso   1.00
O70    O     0.45006   0.36184   0.26086   0.00000  Uiso   1.00
O71    O     0.43886   0.44862   0.35674   0.00000  Uiso   1.00
O72    O     0.30660   0.48174   0.44352   0.00000  Uiso   1.00
O73    O     0.38595   0.43686   0.52862   0.00000  Uiso   1.00
O74    O     0.28116   0.46117   0.33725   0.00000  Uiso   1.00
O75    O     0.30782   0.37201   0.26808   0.00000  Uiso   1.00
O76    O     0.27132   0.32538   0.42346   0.00000  Uiso   1.00
O77    O     0.27735   0.23514   0.33284   0.00000  Uiso   1.00
C78    C     0.24793   0.26599   0.38610   0.00000  Uiso   1.00
C79    C     0.46436   0.42495   0.29605   0.00000  Uiso   1.00
C80    C     0.39975   0.85095   0.99105   0.00000  Uiso   1.00
C81    C     0.43392   0.79532   0.96808   0.00000  Uiso   1.00
C82    C     0.39393   0.73659   0.92572   0.00000  Uiso   1.00
C83    C     0.32141   0.73059   0.91403   0.00000  Uiso   1.00
C84    C     0.28784   0.78223   0.94692   0.00000  Uiso   1.00
C85    C     0.32688   0.84393   0.98225   0.00000  Uiso   1.00
H86    H     0.42981   0.89628   1.02552   0.00000  Uiso   1.00
H87    H     0.41908   0.69230  -0.08984   0.00000  Uiso   1.00
H88    H     0.29250   0.68229  -0.11272   0.00000  Uiso   1.00
H89    H     0.30184   0.88469   1.00694   0.00000  Uiso   1.00
C90    C     0.38855   0.04647   0.17151   0.00000  Uiso   1.00
C91    C     0.41757   0.11405   0.16658   0.00000  Uiso   1.00
C92    C     0.48821   0.12486   0.16418   0.00000  Uiso   1.00
C93    C     0.52968   0.07126   0.16991   0.00000  Uiso   1.00
C94    C     0.50163   0.00319   0.17340   0.00000  Uiso   1.00
C95    C     0.42978  -0.00891   0.17228   0.00000  Uiso   1.00
H96    H     0.33468   0.03719   0.17735   0.00000  Uiso   1.00
H97    H     0.51310   0.17644   0.16567   0.00000  Uiso   1.00
H98    H     0.58467   0.08322   0.17067   0.00000  Uiso   1.00
H99    H     0.40587   0.93949   0.17296   0.00000  Uiso   1.00
C100   C     0.65328   0.31255   0.50338   0.00000  Uiso   1.00
C101   C     0.67744   0.24782   0.49996   0.00000  Uiso   1.00
C102   C     0.62949   0.18940   0.49042   0.00000  Uiso   1.00
C103   C     0.55817   0.19492   0.47568   0.00000  Uiso   1.00
C104   C     0.53317   0.25919   0.47119   0.00000  Uiso   1.00
C105   C     0.58124   0.31808   0.48890   0.00000  Uiso   1.00
H106   H     0.68977   0.35847   0.51414   0.00000  Uiso   1.00
H107   H     0.64694   0.13902   0.49273   0.00000  Uiso   1.00
H108   H     0.52210   0.14863   0.46238   0.00000  Uiso   1.00
H109   H     0.56316   0.36814   0.48366   0.00000  Uiso   1.00
C110   C     0.83424   1.04069   0.85132   0.00000  Uiso   1.00
C111   C     0.80396   0.09391   0.80726   0.00000  Uiso   1.00
C112   C     0.74051   0.11413   0.82099   0.00000  Uiso   1.00
C113   C     0.70879   0.08196   0.87937   0.00000  Uiso   1.00
C114   C     0.74142   0.03081   0.92515   0.00000  Uiso   1.00
C115   C     0.80371   1.01024   0.91001   0.00000  Uiso   1.00
H116   H     0.88220   1.02273   0.84042   0.00000  Uiso   1.00
H117   H     0.71669   0.15535   0.78853   0.00000  Uiso   1.00
H118   H     0.65960   0.09734   0.88982   0.00000  Uiso   1.00
H119   H     0.82759   0.96887   0.94200   0.00000  Uiso   1.00
C120   C     0.79134   0.97616   0.44482   0.00000  Uiso   1.00
C121   C     0.85147   1.02314   0.45482   0.00000  Uiso   1.00
C122   C     0.88356   0.02895   0.38656   0.00000  Uiso   1.00
C123   C     0.85246   0.99449   0.30805   0.00000  Uiso   1.00
C124   C     0.78905   0.95223   0.29663   0.00000  Uiso   1.00
C125   C     0.76131   0.94005   0.36701   0.00000  Uiso   1.00
H126   H     0.76345   0.97323   0.49461   0.00000  Uiso   1.00
H127   H     0.92792   0.06690   0.39138   0.00000  Uiso   1.00
H128   H     0.87535   1.00482   0.25520   0.00000  Uiso   1.00
H129   H     0.71201   0.90833   0.35980   0.00000  Uiso   1.00
C130   C     0.26909   0.46100   0.62260   0.00000  Uiso   1.00
C131   C     0.31655   0.50409   0.59212   0.00000  Uiso   1.00
C132   C     0.34614   0.56636   0.63662   0.00000  Uiso   1.00
C133   C     0.32135   0.58901   0.70554   0.00000  Uiso   1.00
C134   C     0.26828   0.54871   0.73115   0.00000  Uiso   1.00
C135   C     0.24482   0.48325   0.69180   0.00000  Uiso   1.00
H136   H     0.24971   0.41072   0.59165   0.00000  Uiso   1.00
H137   H     0.38510   0.59855   0.61534   0.00000  Uiso   1.00
H138   H     0.33922   0.64042   0.73415   0.00000  Uiso   1.00
H139   H     0.20281   0.45224   0.70878   0.00000  Uiso   1.00
C140   C     0.23597   0.49079   0.04906   0.00000  Uiso   1.00
C141   C     0.18367   0.53353   0.05414   0.00000  Uiso   1.00
C142   C     0.15419   0.53282   0.12526   0.00000  Uiso   1.00
C143   C     0.18078   0.49629   0.19287   0.00000  Uiso   1.00
C144   C     0.23600   0.45756   0.19033   0.00000  Uiso   1.00
C145   C     0.26095   0.45179   0.11633   0.00000  Uiso   1.00
H146   H     0.25945   0.48980  -0.00471   0.00000  Uiso   1.00
H147   H     0.11140   0.56249   0.12981   0.00000  Uiso   1.00
H148   H     0.15976   0.50029   0.24832   0.00000  Uiso   1.00
H149   H     0.30286   0.42067   0.11299   0.00000  Uiso   1.00
C150   C     0.19713   0.21863   0.49488   0.00000  Uiso   1.00
C151   C     0.18596   0.23422   0.41169   0.00000  Uiso   1.00
C152   C     0.11709   0.24355   0.36905   0.00000  Uiso   1.00
C153   C     0.06078   0.23789   0.40995   0.00000  Uiso   1.00
C154   C     0.07324   0.22555   0.49535   0.00000  Uiso   1.00
C155   C     0.14261   0.21518   0.53588   0.00000  Uiso   1.00
H156   H     0.24984   0.21479   0.53075   0.00000  Uiso   1.00
H157   H     0.10747   0.25881   0.30557   0.00000  Uiso   1.00
H158   H     1.00859   0.24436   0.37580   0.00000  Uiso   1.00
H159   H     0.15633   0.20598   0.60159   0.00000  Uiso   1.00
C160   C     0.94939   0.91845   0.69842   0.00000  Uiso   1.00
C161   C     0.00596   0.95696   0.67839   0.00000  Uiso   1.00
C162   C     0.06761   0.92775   0.67627   0.00000  Uiso   1.00
C163   C     0.07456   0.86183   0.70032   0.00000  Uiso   1.00
C164   C     0.02086   0.82636   0.72967   0.00000  Uiso   1.00
C165   C     0.95729   0.85352   0.72566   0.00000  Uiso   1.00
H166   H     0.90187   0.94138   0.70142   0.00000  Uiso   1.00
H167   H     0.11177   0.95750   0.66177   0.00000  Uiso   1.00
H168   H     0.12458   0.84166   0.70451   0.00000  Uiso   1.00
H169   H     0.91601   0.82654   0.74899   0.00000  Uiso   1.00
C170   C     0.92601   0.45885   0.77254   0.00000  Uiso   1.00
C171   C     0.97824   0.49422   0.83698   0.00000  Uiso   1.00
C172   C     0.02137   0.45523   0.89251   0.00000  Uiso   1.00
C173   C     0.02089   0.38480   0.87469   0.00000  Uiso   1.00
C174   C     0.97636   0.35225   0.80172   0.00000  Uiso   1.00
C175   C     0.92557   0.38864   0.75439   0.00000  Uiso   1.00
H176   H     0.89270   0.48676   0.72792   0.00000  Uiso   1.00
H177   H     0.06062   0.48027   0.94400   0.00000  Uiso   1.00
H178   H     0.05911   0.35718   0.91375   0.00000  Uiso   1.00
H179   H     0.88973   0.36448   0.69847   0.00000  Uiso   1.00
C180   C     0.81288   0.69398   0.09515   0.00000  Uiso   1.00
C181   C     0.76255   0.71664   0.03083   0.00000  Uiso   1.00
C182   C     0.77233   0.71241   0.94865   0.00000  Uiso   1.00
C183   C     0.83428   0.69180   0.93214   0.00000  Uiso   1.00
C184   C     0.88819   0.67744   0.99819   0.00000  Uiso   1.00
C185   C     0.87606   0.67596   0.07927   0.00000  Uiso   1.00
H186   H     0.80702   0.69749   0.15927   0.00000  Uiso   1.00
H187   H     0.73451   0.73046   0.89870   0.00000  Uiso   1.00
H188   H     0.84319   0.69493   0.86965   0.00000  Uiso   1.00
H189   H     0.91742   0.66528   0.13094   0.00000  Uiso   1.00
C190   C     0.48112   0.57691   0.17860   0.00000  Uiso   1.00
C191   C     0.53718   0.61790   0.23325   0.00000  Uiso   1.00
C192   C     0.57908   0.58721   0.29914   0.00000  Uiso   1.00
C193   C     0.56138   0.51888   0.31361   0.00000  Uiso   1.00
C194   C     0.50338   0.47902   0.26098   0.00000  Uiso   1.00
C195   C     0.46506   0.50854   0.19181   0.00000  Uiso   1.00
H196   H     0.44821   0.59817   0.12623   0.00000  Uiso   1.00
H197   H     0.62443   0.61625   0.34031   0.00000  Uiso   1.00
H198   H     0.59019   0.49810   0.36882   0.00000  Uiso   1.00
H199   H     0.41864   0.48047   0.15222   0.00000  Uiso   1.00
loop_
_geom_bond_atom_site_label_1
_geom_bond_atom_site_label_2
_geom_bond_distance
_geom_bond_site_symmetry_2
_ccdc_geom_bond_type
C0     O4      1.293   .     A
C0     O5      1.270   .     A
C0     C134    1.455   .     S
Ho1    O4      2.192   .     S
Ho1    O5      2.128   .     S
Ho1    O6      2.152   .     S
Ho1    O7      2.054   .     S
Ho1    O10     2.285   .     S
Ho1    O15     2.089   .     S
Ho1    O17     2.191   .     S
C2     O12     1.256   1_655 A
C2     O13     1.264   1_554 A
C2     C184    1.474   1_554 S
Ho3    O7      2.254   .     S
Ho3    O11     2.148   .     S
Ho3    O14     2.250   .     S
Ho3    O15     2.166   .     S
Ho3    O16     2.185   .     S
Ho3    O12     2.192   1_556 S
Ho3    O13     2.223   1_455 S
O6     C8      1.233   .     D
O7     C8      1.426   .     S
C8     C171    1.480   1_455 S
C9     O14     1.222   .     D
C9     O15     1.360   .     S
C9     C84     1.475   .     S
O10    C19     1.319   .     A
O11    C19     1.292   .     A
O12    C2      1.256   1_455 A
O12    Ho3     2.192   1_554 S
O13    C2      1.264   1_556 A
O13    Ho3     2.223   1_655 S
O16    C18     1.291   .     A
O17    C18     1.288   .     A
C18    C164    1.452   .     S
C19    C141    1.490   1_556 S
C20    O24     1.281   .     A
C20    O25     1.282   .     A
C20    C191    1.489   .     S
Ho21   O24     2.185   .     S
Ho21   O25     2.211   .     S
Ho21   O26     2.171   .     S
Ho21   O27     2.157   .     S
Ho21   O30     2.268   .     S
Ho21   O35     2.177   .     S
Ho21   O37     2.222   .     S
C22    C114    1.458   .     S
C22    O32     1.285   1_556 A
C22    O33     1.273   1_545 A
Ho23   O27     2.156   .     S
Ho23   O31     2.148   .     S
Ho23   O34     2.190   .     S
Ho23   O35     2.180   .     S
Ho23   O36     2.183   .     S
Ho23   O32     2.179   1_565 S
Ho23   O33     2.166   1_554 S
O26    C28     1.225   .     D
O27    C28     1.399   .     S
C28    C81     1.462   1_554 S
C29    O34     1.231   .     D
C29    O35     1.411   .     S
C29    C124    1.489   .     S
O30    C39     1.321   .     A
O31    C39     1.295   .     A
O32    C22     1.285   1_554 A
O32    Ho23    2.179   1_545 S
O33    C22     1.273   1_565 A
O33    Ho23    2.166   1_556 S
O36    C38     1.290   .     A
O37    C38     1.296   .     A
C38    C181    1.477   .     S
C39    C94     1.495   1_565 S
C40    O44     1.285   .     A
C40    O45     1.276   .     A
C40    C101    1.472   .     S
Ho41   O44     2.176   .     S
Ho41   O45     2.178   .     S
Ho41   O46     2.125   .     S
Ho41   O47     2.179   .     S
Ho41   O50     2.278   .     S
Ho41   O55     2.091   .     S
Ho41   O57     2.242   .     S
C42    O52     1.263   .     A
C42    O53     1.267   1_445 A
C42    C161    1.450   1_545 S
Ho43   O47     2.302   .     S
Ho43   O51     2.141   .     S
Ho43   O54     2.215   .     S
Ho43   O55     2.116   .     S
Ho43   O56     2.141   .     S
Ho43   O52     2.189   1_655 S
Ho43   O53     2.178   1_545 S
O46    C48     1.228   .     D
O47    C48     1.456   .     S
C48    C121    1.477   1_545 S
C49    O54     1.228   .     D
C49    O55     1.376   .     S
C49    C174    1.480   .     S
O50    C59     1.319   .     A
O51    C59     1.288   .     A
O52    Ho43    2.189   1_455 S
O53    C42     1.267   1_665 A
O53    Ho43    2.178   1_565 S
O56    C58     1.285   .     A
O57    C58     1.304   .     A
C58    C111    1.477   .     S
C59    C154    1.508   1_655 S
C60    O64     1.267   .     A
C60    O65     1.286   .     A
C60    C91     1.474   .     S
Ho61   O64     2.174   .     S
Ho61   O65     2.247   .     S
Ho61   O66     2.192   .     S
Ho61   O67     2.178   .     S
Ho61   O70     2.261   .     S
Ho61   O75     2.172   .     S
Ho61   O77     2.243   .     S
C62    O72     1.286   .     A
C62    O73     1.264   .     A
C62    C131    1.451   .     S
Ho63   O67     2.127   .     S
Ho63   O71     2.156   .     S
Ho63   O72     2.189   .     S
Ho63   O73     2.147   .     S
Ho63   O74     2.179   .     S
Ho63   O75     2.176   .     S
Ho63   O76     2.168   .     S
O66    C68     1.221   .     D
O67    C68     1.386   .     S
C68    C104    1.467   .     S
C69    O74     1.233   .     D
C69    O75     1.397   .     S
C69    C144    1.471   .     S
O70    C79     1.320   .     A
O71    C79     1.294   .     A
O76    C78     1.286   .     A
O77    C78     1.303   .     A
C78    C151    1.477   .     S
C79    C194    1.477   .     S
C80    C81     1.414   .     A
C80    C85     1.406   .     A
C80    H86     1.081   .     S
C81    C82     1.395   .     A
C81    C28     1.462   1_556 S
C82    C83     1.394   .     A
C82    H87     1.088   1_556 S
C83    C84     1.408   .     A
C83    H88     1.081   1_556 S
C84    C85     1.400   .     A
C85    H89     1.085   .     S
H87    C82     1.088   1_554 S
H88    C83     1.081   1_554 S
C90    C91     1.416   .     A
C90    C95     1.419   .     A
C90    H96     1.088   .     S
C91    C92     1.400   .     A
C92    C93     1.389   .     A
C92    H97     1.085   .     S
C93    C94     1.414   .     A
C93    H98     1.086   .     S
C94    C95     1.411   .     A
C94    C39     1.495   1_545 S
C95    H99     1.084   1_545 S
H99    C95     1.084   1_565 S
C100   C101    1.405   .     A
C100   C105    1.404   .     A
C100   H106    1.085   .     S
C101   C102    1.401   .     A
C102   C103    1.389   .     A
C102   H107    1.080   .     S
C103   C104    1.401   .     A
C103   H108    1.085   .     S
C104   C105    1.404   .     A
C105   H109    1.081   .     S
C110   C115    1.383   .     A
C110   H116    1.086   .     S
C110   C111    1.412   1_565 A
C111   C112    1.408   .     A
C111   C110    1.412   1_545 A
C112   C113    1.407   .     A
C112   H117    1.084   .     S
C113   C114    1.411   .     A
C113   H118    1.088   .     S
C114   C115    1.396   1_545 A
C115   H119    1.084   .     S
C115   C114    1.396   1_565 A
C120   C121    1.410   .     A
C120   C125    1.406   .     A
C120   H126    1.083   .     S
C121   C122    1.410   1_565 D
C121   C48     1.477   1_565 S
C122   H127    1.084   .     S
C122   C121    1.410   1_545 D
C122   C123    1.405   1_545 S
C123   C124    1.408   .     A
C123   H128    1.085   .     S
C123   C122    1.405   1_565 S
C124   C125    1.408   .     A
C125   H129    1.087   .     S
C130   C131    1.401   .     A
C130   C135    1.391   .     A
C130   H136    1.084   .     S
C131   C132    1.400   .     A
C132   C133    1.395   .     A
C132   H137    1.083   .     S
C133   C134    1.410   .     A
C133   H138    1.086   .     S
C134   C135    1.400   .     A
C135   H139    1.081   .     S
C140   C141    1.403   .     A
C140   C145    1.408   .     A
C140   H146    1.084   .     S
C141   C142    1.416   .     A
C141   C19     1.490   1_554 S
C142   C143    1.390   .     A
C142   H147    1.083   .     S
C143   C144    1.392   .     A
C143   H148    1.083   .     S
C144   C145    1.411   .     A
C145   H149    1.082   .     S
C150   C151    1.393   .     A
C150   C155    1.388   .     A
C150   H156    1.088   .     S
C151   C152    1.418   .     A
C152   C153    1.419   .     A
C152   H157    1.084   .     S
C153   C154    1.410   .     A
C153   H158    1.081   1_455 S
C154   C155    1.422   .     A
C154   C59     1.508   1_455 S
C155   H159    1.084   .     S
H158   C153    1.081   1_655 S
C160   C165    1.392   .     A
C160   H166    1.086   .     S
C160   C161    1.403   1_655 A
C161   C162    1.398   .     A
C161   C160    1.403   1_455 A
C161   C42     1.450   1_565 S
C162   C163    1.390   .     A
C162   H167    1.084   .     S
C163   C164    1.405   .     A
C163   H168    1.087   .     S
C164   C165    1.397   1_455 A
C165   H169    1.085   .     S
C165   C164    1.397   1_655 A
C170   C171    1.404   .     A
C170   C175    1.398   .     A
C170   H176    1.083   .     S
C171   C172    1.416   1_655 A
C171   C8      1.480   1_655 S
C172   C173    1.401   .     A
C172   H177    1.073   .     S
C172   C171    1.416   1_455 A
C173   H178    1.086   .     S
C173   C174    1.401   1_455 A
C174   C175    1.405   .     A
C174   C173    1.401   1_655 A
C175   H179    1.083   .     S
C180   C181    1.405   .     A
C180   C185    1.400   .     A
C180   H186    1.084   .     S
C181   C182    1.404   1_554 A
C182   C183    1.398   .     A
C182   H187    1.081   .     S
C182   C181    1.404   1_556 A
C183   C184    1.404   .     A
C183   H188    1.084   .     S
C184   C185    1.406   1_556 A
C184   C2      1.474   1_556 S
C185   H189    1.085   .     S
C185   C184    1.406   1_554 A
C190   C191    1.413   .     A
C190   C195    1.397   .     A
C190   H196    1.087   .     S
C191   C192    1.412   .     A
C192   C193    1.408   .     A
C192   H197    1.087   .     S
C193   C194    1.413   .     A
C193   H198    1.082   .     S
C194   C195    1.407   .     A
C195   H199    1.082   .     S
