data_lcy+N505+E183
_audit_creation_date              2025-01-21
_audit_creation_method            'Materials Studio'
_symmetry_space_group_name_H-M    'P1'
_symmetry_Int_Tables_number       1
_symmetry_cell_setting            triclinic
loop_
_symmetry_equiv_pos_as_xyz
  x,y,z
_cell_length_a                    23.6783
_cell_length_b                    19.2016
_cell_length_c                    22.3022
_cell_angle_alpha                 94.6851
_cell_angle_beta                  94.5027
_cell_angle_gamma                 98.5921
loop_
_atom_site_label
_atom_site_type_symbol
_atom_site_fract_x
_atom_site_fract_y
_atom_site_fract_z
_atom_site_U_iso_or_equiv
_atom_site_adp_type
_atom_site_occupancy
Yb0    Yb    0.18155   0.62529   0.78612   0.00000  Uiso   1.00
Yb1    Yb    0.16022   0.69428   0.98141   0.00000  Uiso   1.00
C2     C     0.07473   0.67762   1.03850   0.00000  Uiso   1.00
O3     O     0.11866   0.55642   0.82060   0.00000  Uiso   1.00
O4     O     0.09948   0.60332   0.73620   0.00000  Uiso   1.00
O5     O     0.16575   0.72206   0.83889   0.00000  Uiso   1.00
O6     O     0.10821   0.73413   0.91194   0.00000  Uiso   1.00
O7     O     0.20667   0.55266   0.72261   0.00000  Uiso   1.00
O8     O     0.23256   0.66741   0.72034   0.00000  Uiso   1.00
O9     O     0.23809   0.76573   0.99029   0.00000  Uiso   1.00
O10    O     0.22655   0.67671   0.04611   0.00000  Uiso   1.00
C11    C     0.08603   0.55454   0.77168   0.00000  Uiso   1.00
O12    O     0.25008   0.60266   0.84978   0.00000  Uiso   1.00
O13    O     0.19121   0.63925   0.90792   0.00000  Uiso   1.00
O14    O     0.11366   0.73329   1.04965   0.00000  Uiso   1.00
C15    C     0.11923   0.73898   0.85686   0.00000  Uiso   1.00
O16    O     0.08575   0.62788   1.00053   0.00000  Uiso   1.00
C17    C     0.23141   0.60396   0.69559   0.00000  Uiso   1.00
C18    C     0.26048   0.72963   1.02972   0.00000  Uiso   1.00
C19    C     0.23218   0.60538   0.90183   0.00000  Uiso   1.00
Yb20   Yb    0.71001   0.81881   0.09211   0.00000  Uiso   1.00
Yb21   Yb    0.57653   0.90429   0.18955   0.00000  Uiso   1.00
C22    C     0.51536  -0.00701   0.20831   0.00000  Uiso   1.00
O23    O     0.68182   0.86823   0.01695   0.00000  Uiso   1.00
O24    O     0.77276   0.88308   0.04987   0.00000  Uiso   1.00
O25    O     0.70483   0.90803   0.15969   0.00000  Uiso   1.00
O26    O     0.64801   0.98374   0.18813   0.00000  Uiso   1.00
O27    O     0.74361   0.73212   0.05067   0.00000  Uiso   1.00
O28    O     0.76291   0.76756   0.14720   0.00000  Uiso   1.00
O29    O     0.61372   0.83388   0.24261   0.00000  Uiso   1.00
O30    O     0.52256   0.81268   0.20928   0.00000  Uiso   1.00
C31    C     0.73378   0.89271   0.00888   0.00000  Uiso   1.00
O32    O     0.62607   0.75241   0.09790   0.00000  Uiso   1.00
O33    O     0.60401   0.85616   0.11110   0.00000  Uiso   1.00
O34    O     0.54082   0.96645   0.25257   0.00000  Uiso   1.00
C35    C     0.69518   0.96024   0.19512   0.00000  Uiso   1.00
O36    O     0.52105  -0.03192   0.15398   0.00000  Uiso   1.00
C37    C     0.77543   0.73129   0.10038   0.00000  Uiso   1.00
C38    C     0.56565   0.79173   0.23786   0.00000  Uiso   1.00
C39    C     0.58719   0.79145   0.09765   0.00000  Uiso   1.00
Yb40   Yb    0.87596   0.04241   0.64433   0.00000  Uiso   1.00
Yb41   Yb    0.80895   0.21091   0.56110   0.00000  Uiso   1.00
C42    C     0.71806   0.25122   0.53565   0.00000  Uiso   1.00
O43    O     0.80438   0.06247   0.69058   0.00000  Uiso   1.00
O44    O     0.81931   0.95468   0.66333   0.00000  Uiso   1.00
O45    O     0.83551   0.03489   0.55232   0.00000  Uiso   1.00
O46    O     0.76792   0.10363   0.55594   0.00000  Uiso   1.00
O47    O     0.92529   1.02712   0.72277   0.00000  Uiso   1.00
O48    O    -0.05368  -0.01293   0.63377   0.00000  Uiso   1.00
O49    O     0.87817   0.19085   0.51439   0.00000  Uiso   1.00
O50    O     0.87057   0.29972   0.54703   0.00000  Uiso   1.00
C51    C     0.79445   0.99573   0.69748   0.00000  Uiso   1.00
O52    O     0.92755   0.14573   0.64387   0.00000  Uiso   1.00
O53    O     0.85133   0.19645   0.64609   0.00000  Uiso   1.00
O54    O     0.74990   0.23485   0.49385   0.00000  Uiso   1.00
C55    C     0.79362   0.05970   0.52691   0.00000  Uiso   1.00
O56    O     0.73760   0.25214   0.59091   0.00000  Uiso   1.00
C57    C     0.95468   0.98871   0.69172   0.00000  Uiso   1.00
C58    C     0.90055   0.25642   0.52142   0.00000  Uiso   1.00
C59    C     0.90511   0.20139   0.65259   0.00000  Uiso   1.00
Yb60   Yb    0.33886   0.41082   0.28739   0.00000  Uiso   1.00
Yb61   Yb    0.31876   0.30220   0.46129   0.00000  Uiso   1.00
C62    C     0.40819   0.29827   0.52179   0.00000  Uiso   1.00
O63    O     0.40914   0.44698   0.34971   0.00000  Uiso   1.00
O64    O     0.42059   0.40226   0.25843   0.00000  Uiso   1.00
O65    O     0.32292   0.30512   0.31672   0.00000  Uiso   1.00
O66    O     0.36160   0.25367   0.39063   0.00000  Uiso   1.00
O67    O     0.34221   0.49671   0.23485   0.00000  Uiso   1.00
O68    O     0.28689   0.39446   0.20623   0.00000  Uiso   1.00
O69    O     0.23605   0.24467   0.44885   0.00000  Uiso   1.00
O70    O     0.25928   0.33059   0.52224   0.00000  Uiso   1.00
C71    C     0.44233   0.44166   0.30712   0.00000  Uiso   1.00
O72    O     0.27701   0.45321   0.34277   0.00000  Uiso   1.00
O73    O     0.29238   0.37029   0.39788   0.00000  Uiso   1.00
O74    O     0.36444   0.24914   0.52349   0.00000  Uiso   1.00
C75    C     0.35863   0.26747   0.33582   0.00000  Uiso   1.00
O76    O     0.39905   0.35420   0.49658   0.00000  Uiso   1.00
C77    C     0.30814   0.45674   0.19355   0.00000  Uiso   1.00
C78    C     0.21978   0.28469   0.49136   0.00000  Uiso   1.00
C79    C     0.27898   0.43093   0.39489   0.00000  Uiso   1.00
C80    C     0.52500   0.76952   0.08005   0.00000  Uiso   1.00
C81    C     0.42570   0.78611   1.05066   0.00000  Uiso   1.00
C82    C     0.42152   0.72730   0.08063   0.00000  Uiso   1.00
S83    S     0.36482   0.81383   1.02358   0.00000  Uiso   1.00
S84    S     0.35461   0.68774   0.09218   0.00000  Uiso   1.00
S85    S     0.49166   0.82957   1.04290   0.00000  Uiso   1.00
S86    S     0.48324   0.69757   0.10399   0.00000  Uiso   1.00
C87    C     0.32238   0.74479   1.05027   0.00000  Uiso   1.00
C88    C     0.38659   0.22664   0.29350   0.00000  Uiso   1.00
C89    C     0.45961   0.16443   0.25469   0.00000  Uiso   1.00
C90    C     0.40915   0.11906   0.24327   0.00000  Uiso   1.00
S91    S     0.52097   0.13401   0.24104   0.00000  Uiso   1.00
S92    S     0.41037   0.03428   0.21719   0.00000  Uiso   1.00
S93    S     0.45931   0.24559   0.29013   0.00000  Uiso   1.00
S94    S     0.34853   0.14769   0.26217   0.00000  Uiso   1.00
C95    C     0.48358   0.05075   0.21949   0.00000  Uiso   1.00
C96    C     0.65926   0.26025   0.52334   0.00000  Uiso   1.00
C97    C     0.55650   0.23738   0.53035   0.00000  Uiso   1.00
C98    C     0.57173   0.30910   0.53432   0.00000  Uiso   1.00
S99    S     0.48584   0.20445   0.53189   0.00000  Uiso   1.00
S100   S     0.52036   0.36047   0.54191   0.00000  Uiso   1.00
S101   S     0.60910   0.18591   0.52315   0.00000  Uiso   1.00
S102   S     0.64151   0.34310   0.53268   0.00000  Uiso   1.00
C103   C     0.46759   0.28811   0.53815   0.00000  Uiso   1.00
C104   C     0.76858  -0.03106   0.75046   0.00000  Uiso   1.00
C105   C     0.73983  -0.03038   0.85385   0.00000  Uiso   1.00
C106   C     0.77187   0.91692   0.84727   0.00000  Uiso   1.00
S107   S     0.71335  -0.01609   0.92174   0.00000  Uiso   1.00
S108   S     0.78680   0.87205   0.90710   0.00000  Uiso   1.00
S109   S     0.72999   0.01877   0.79473   0.00000  Uiso   1.00
S110   S     0.79619   0.89952   0.77947   0.00000  Uiso   1.00
C111   C     0.74746  -0.08049   0.95144   0.00000  Uiso   1.00
C112   C     0.78021   0.04271   0.46097   0.00000  Uiso   1.00
C113   C     0.75391   0.04887   0.35286   0.00000  Uiso   1.00
C114   C     0.76941   0.98406   0.35700   0.00000  Uiso   1.00
S115   S     0.72739   0.06886   0.28484   0.00000  Uiso   1.00
S116   S     0.76101   0.92667   0.29333   0.00000  Uiso   1.00
S117   S     0.75662   0.10385   0.41681   0.00000  Uiso   1.00
S118   S     0.79130   0.96247   0.42671   0.00000  Uiso   1.00
C119   C     0.73204   0.98605   0.25104   0.00000  Uiso   1.00
C120   C     0.27505   0.47584   0.45001   0.00000  Uiso   1.00
C121   C     0.28973   0.52496   0.55512   0.00000  Uiso   1.00
C122   C     0.24705   0.55532   0.52881   0.00000  Uiso   1.00
S123   S     0.30424   0.53719   0.63098   0.00000  Uiso   1.00
S124   S     0.21281   0.60743   0.57356   0.00000  Uiso   1.00
S125   S     0.32185   0.46982   0.51145   0.00000  Uiso   1.00
S126   S     0.22694   0.53414   0.45390   0.00000  Uiso   1.00
C127   C     0.25232   0.58981   0.63686   0.00000  Uiso   1.00
C128   C     0.25076   0.56546   0.95072   0.00000  Uiso   1.00
C129   C     0.24547   0.50487   0.04182   0.00000  Uiso   1.00
C130   C     0.30211   0.52237   0.03462   0.00000  Uiso   1.00
S131   S     0.22551   0.46919   0.10505   0.00000  Uiso   1.00
S132   S     0.34973   0.50942   0.09151   0.00000  Uiso   1.00
S133   S     0.19736   0.52351  -0.01093   0.00000  Uiso   1.00
S134   S     0.32127   0.56269   0.97238   0.00000  Uiso   1.00
C135   C     0.29520   0.47944   0.13402   0.00000  Uiso   1.00
C136   C     0.15838   0.28092   0.49997   0.00000  Uiso   1.00
C137   C     0.06426   0.31054   0.52166   0.00000  Uiso   1.00
C138   C     0.05410   0.25260   0.48066   0.00000  Uiso   1.00
S139   S     0.00664   0.34228   0.54830   0.00000  Uiso   1.00
S140   S    -0.01425   0.21616   0.45802   0.00000  Uiso   1.00
S141   S     0.13350   0.34437   0.54569   0.00000  Uiso   1.00
S142   S     0.11037   0.21852   0.45519   0.00000  Uiso   1.00
C143   C    -0.04038   0.27613   0.50585   0.00000  Uiso   1.00
C144   C    -0.01008   0.94294   0.72194   0.00000  Uiso   1.00
C145   C     0.01858   0.86008   0.79158   0.00000  Uiso   1.00
C146   C     0.05304   0.85694   0.74577   0.00000  Uiso   1.00
S147   S     0.02715   0.81028   0.84945   0.00000  Uiso   1.00
S148   S     0.10407   0.80365   0.75046   0.00000  Uiso   1.00
S149   S     0.96968   0.91538   0.78956   0.00000  Uiso   1.00
S150   S     0.04323   0.90751   0.68762   0.00000  Uiso   1.00
C151   C     0.08374   0.77810   0.81902   0.00000  Uiso   1.00
C152   C     0.04675   0.48911   0.75174   0.00000  Uiso   1.00
C153   C     0.97040   0.39687   0.70531   0.00000  Uiso   1.00
C154   C     0.01545   0.36343   0.72062   0.00000  Uiso   1.00
S155   S     0.90892   0.34651   0.67417   0.00000  Uiso   1.00
S156   S     0.00904   0.27471   0.70407   0.00000  Uiso   1.00
S157   S     0.97882   0.48677   0.71804   0.00000  Uiso   1.00
S158   S     0.07533   0.41208   0.75610   0.00000  Uiso   1.00
C159   C     0.93981   0.27036   0.67326   0.00000  Uiso   1.00
C160   C     0.83064   0.70492   0.10179   0.00000  Uiso   1.00
C161   C     0.93540   0.71414   0.10649   0.00000  Uiso   1.00
C162   C     0.91407   0.65479   1.06893   0.00000  Uiso   1.00
S163   S     1.00699   0.74340   0.11305   0.00000  Uiso   1.00
S164   S     0.96140   0.61192   1.03273   0.00000  Uiso   1.00
S165   S     0.88889   0.76074   0.13901   0.00000  Uiso   1.00
S166   S     0.84129   0.63262   1.05532   0.00000  Uiso   1.00
C167   C     1.01861   0.67465   0.06332   0.00000  Uiso   1.00
C168   C     0.56118   0.72176   0.26061   0.00000  Uiso   1.00
C169   C     0.53441   0.62025   0.31725   0.00000  Uiso   1.00
C170   C     0.54633   0.59317   0.26243   0.00000  Uiso   1.00
S171   S     0.50345   0.56377   0.36374   0.00000  Uiso   1.00
S172   S     0.52708   0.50494   0.24284   0.00000  Uiso   1.00
S173   S     0.54121   0.70958   0.33156   0.00000  Uiso   1.00
S174   S     0.57072   0.65040   0.21313   0.00000  Uiso   1.00
C175   C     0.49525   0.49342   0.30874   0.00000  Uiso   1.00
loop_
_geom_bond_atom_site_label_1
_geom_bond_atom_site_label_2
_geom_bond_distance
_geom_bond_site_symmetry_2
_ccdc_geom_bond_type
Yb0    O3      2.077   .     S
Yb0    O4      2.129   .     S
Yb0    O5      2.213   .     S
Yb0    O7      2.089   .     S
Yb0    O8      2.108   .     S
Yb0    O12     2.188   .     S
Yb1    O6      2.163   .     S
Yb1    O9      2.113   .     S
Yb1    O13     2.116   .     S
Yb1    O14     2.102   .     S
Yb1    O16     2.110   .     S
Yb1    O10     2.132   1_556 S
C2     O14     1.296   .     A
C2     O16     1.294   .     A
C2     C167    1.474   1_456 S
O3     C11     1.281   .     A
O4     C11     1.295   .     A
O5     C15     1.278   .     A
O6     C15     1.284   .     A
O7     C17     1.287   .     A
O8     C17     1.291   .     A
O9     C18     1.293   .     A
O10    Yb1     2.132   1_554 S
O10    C18     1.294   1_554 A
C11    C152    1.461   .     S
O12    C19     1.267   .     A
O13    C19     1.256   .     A
C15    C151    1.471   .     S
C17    C127    1.455   .     S
C18    C87     1.479   .     S
C18    O10     1.294   1_556 A
C19    C128    1.460   .     S
Yb20   O23     2.104   .     S
Yb20   O24     2.116   .     S
Yb20   O25     2.212   .     S
Yb20   O27     2.126   .     S
Yb20   O28     2.091   .     S
Yb20   O32     2.214   .     S
Yb21   O26     2.107   .     S
Yb21   O29     2.111   .     S
Yb21   O30     2.113   .     S
Yb21   O33     2.105   .     S
Yb21   O34     2.081   .     S
Yb21   O36     2.081   1_565 S
C22    O36     1.290   .     A
C22    C95     1.446   .     S
C22    O34     1.295   1_545 A
O23    C31     1.282   .     A
O24    C31     1.292   .     A
O25    C35     1.284   .     A
O26    C35     1.269   .     A
O27    C37     1.293   .     A
O28    C37     1.286   .     A
O29    C38     1.286   .     A
O30    C38     1.293   .     A
C31    C111    1.461   1_564 S
O32    C39     1.271   .     A
O33    C39     1.251   .     A
O34    C22     1.295   1_565 A
C35    C119    1.470   .     S
O36    Yb21    2.081   1_545 S
C37    C160    1.470   .     S
C38    C168    1.467   .     S
C39    C80     1.482   .     S
Yb40   O43     2.119   .     S
Yb40   O45     2.180   .     S
Yb40   O52     2.170   .     S
Yb40   O44     2.085   1_545 S
Yb40   O47     2.092   1_545 S
Yb40   O48     2.124   1_655 S
Yb41   O46     2.132   .     S
Yb41   O49     2.076   .     S
Yb41   O50     2.134   .     S
Yb41   O53     2.132   .     S
Yb41   O54     2.095   .     S
Yb41   O56     2.101   .     S
C42    O54     1.292   .     A
C42    O56     1.280   .     A
C42    C96     1.437   .     S
O43    C51     1.292   1_545 A
O44    C51     1.288   .     A
O44    Yb40    2.085   1_565 S
O45    C55     1.276   .     A
O46    C55     1.276   .     A
O47    C57     1.286   .     A
O47    Yb40    2.092   1_565 S
O48    Yb40    2.124   1_455 S
O48    C57     1.289   1_445 A
O49    C58     1.283   .     A
O50    C58     1.298   .     A
C51    O43     1.292   1_565 A
C51    C104    1.468   1_565 S
O52    C59     1.271   .     A
O53    C59     1.259   .     A
C55    C112    1.479   .     S
C57    O48     1.289   1_665 A
C57    C144    1.467   1_655 S
C58    C143    1.470   1_655 S
C59    C159    1.469   .     S
Yb60   O63     2.078   .     S
Yb60   O64     2.113   .     S
Yb60   O65     2.172   .     S
Yb60   O67     2.095   .     S
Yb60   O68     2.081   .     S
Yb60   O72     2.193   .     S
Yb61   O66     2.162   .     S
Yb61   O69     2.086   .     S
Yb61   O70     2.130   .     S
Yb61   O73     2.123   .     S
Yb61   O74     2.111   .     S
Yb61   O76     2.074   .     S
C62    O74     1.298   .     A
C62    O76     1.290   .     A
C62    C103    1.470   .     S
O63    C71     1.286   .     A
O64    C71     1.296   .     A
O65    C75     1.263   .     A
O66    C75     1.271   .     A
O67    C77     1.293   .     A
O68    C77     1.289   .     A
O69    C78     1.290   .     A
O70    C78     1.296   .     A
C71    C175    1.475   .     S
O72    C79     1.271   .     A
O73    C79     1.257   .     A
C75    C88     1.441   .     S
C77    C135    1.455   .     S
C78    C136    1.473   .     S
C79    C120    1.460   .     S
C80    S86     1.722   .     A
C80    S85     1.722   1_554 A
C81    S83     1.695   .     A
C81    S85     1.686   .     A
C81    C82     1.354   1_556 A
C82    S84     1.700   .     A
C82    S86     1.706   .     A
C82    C81     1.354   1_554 A
S83    C87     1.716   .     A
S84    C87     1.721   1_554 A
S85    C80     1.722   1_556 A
C87    S84     1.721   1_556 A
C88    S93     1.715   .     A
C88    S94     1.708   .     A
C89    C90     1.363   .     A
C89    S91     1.685   .     A
C89    S93     1.690   .     A
C90    S92     1.689   .     A
C90    S94     1.683   .     A
S91    C95     1.719   .     A
S92    C95     1.711   .     A
C96    S101    1.715   .     A
C96    S102    1.706   .     A
C97    C98     1.364   .     A
C97    S99     1.702   .     A
C97    S101    1.711   .     A
C98    S100    1.687   .     A
C98    S102    1.688   .     A
S99    C103    1.722   .     A
S100   C103    1.716   .     A
C104   S109    1.724   .     A
C104   S110    1.720   1_545 A
C104   C51     1.468   1_545 S
C105   S107    1.701   .     A
C105   S109    1.704   .     A
C105   C106    1.358   1_545 A
C106   S108    1.689   .     A
C106   S110    1.686   .     A
C106   C105    1.358   1_565 A
S107   C111    1.723   .     A
S108   C111    1.711   1_565 A
S110   C104    1.720   1_565 A
C111   S108    1.711   1_545 A
C111   C31     1.461   1_546 S
C112   S117    1.720   .     A
C112   S118    1.728   1_545 A
C113   S115    1.691   .     A
C113   S117    1.695   .     A
C113   C114    1.357   1_545 A
C114   S116    1.704   .     A
C114   S118    1.703   .     A
C114   C113    1.357   1_565 A
S115   C119    1.726   1_545 A
S116   C119    1.723   .     A
S118   C112    1.728   1_565 A
C119   S115    1.726   1_565 A
C120   S125    1.716   .     A
C120   S126    1.714   .     A
C121   C122    1.358   .     A
C121   S123    1.690   .     A
C121   S125    1.684   .     A
C122   S124    1.692   .     A
C122   S126    1.700   .     A
S123   C127    1.710   .     A
S124   C127    1.717   .     A
C128   S134    1.711   .     A
C128   S133    1.720   1_556 A
C129   C130    1.358   .     A
C129   S131    1.687   .     A
C129   S133    1.671   .     A
C130   S132    1.689   .     A
C130   S134    1.703   1_554 A
S131   C135    1.701   .     A
S132   C135    1.719   .     A
S133   C128    1.720   1_554 A
S134   C130    1.703   1_556 A
C136   S141    1.725   .     A
C136   S142    1.716   .     A
C137   C138    1.360   .     A
C137   S139    1.704   .     A
C137   S141    1.698   .     A
C138   S140    1.685   .     A
C138   S142    1.687   .     A
S139   C143    1.722   .     A
S140   C143    1.721   .     A
C143   C58     1.470   1_455 S
C144   S150    1.722   .     A
C144   S149    1.718   1_455 A
C144   C57     1.467   1_455 S
C145   C146    1.360   .     A
C145   S147    1.685   .     A
C145   S149    1.684   1_455 A
C146   S148    1.699   .     A
C146   S150    1.704   .     A
S147   C151    1.720   .     A
S148   C151    1.726   .     A
S149   C144    1.718   1_655 A
S149   C145    1.684   1_655 A
C152   S158    1.723   .     A
C152   S157    1.714   1_455 A
C153   S155    1.688   .     A
C153   S157    1.705   .     A
C153   C154    1.360   1_655 A
C154   S156    1.695   .     A
C154   S158    1.678   .     A
C154   C153    1.360   1_455 A
S155   C159    1.729   .     A
S156   C159    1.715   1_455 A
S157   C152    1.714   1_655 A
C159   S156    1.715   1_655 A
C160   S165    1.724   .     A
C160   S166    1.725   1_554 A
C161   S163    1.695   .     A
C161   S165    1.689   .     A
C161   C162    1.364   1_554 A
C162   S164    1.701   .     A
C162   S166    1.709   .     A
C162   C161    1.364   1_556 A
S163   C167    1.722   .     A
S164   C167    1.728   1_556 A
S166   C160    1.725   1_556 A
C167   S164    1.728   1_554 A
C167   C2      1.474   1_654 S
C168   S173    1.711   .     A
C168   S174    1.716   .     A
C169   C170    1.356   .     A
C169   S171    1.689   .     A
C169   S173    1.700   .     A
C170   S172    1.699   .     A
C170   S174    1.691   .     A
S171   C175    1.726   .     A
S172   C175    1.719   .     A
