data_lcy+N139+E15
_audit_creation_date              2025-01-21
_audit_creation_method            'Materials Studio'
_symmetry_space_group_name_H-M    'P1'
_symmetry_Int_Tables_number       1
_symmetry_cell_setting            triclinic
loop_
_symmetry_equiv_pos_as_xyz
  x,y,z
_cell_length_a                    18.9911
_cell_length_b                    17.7221
_cell_length_c                    17.6652
_cell_angle_alpha                 93.1845
_cell_angle_beta                  85.8880
_cell_angle_gamma                 80.9885
loop_
_atom_site_label
_atom_site_type_symbol
_atom_site_fract_x
_atom_site_fract_y
_atom_site_fract_z
_atom_site_U_iso_or_equiv
_atom_site_adp_type
_atom_site_occupancy
C0     C     1.10743   0.42876   0.91498   0.00000  Uiso   1.00
Sm1    Sm    0.13574   0.75520   0.99790   0.00000  Uiso   1.00
Sm2    Sm    0.15766   0.52789   0.83304   0.00000  Uiso   1.00
C3     C     0.19436   0.58044   0.99573   0.00000  Uiso   1.00
C4     C     0.23478   0.56660   0.70915   0.00000  Uiso   1.00
O5     O     0.20188   0.84483   0.96163   0.00000  Uiso   1.00
O6     O     0.25446   0.73949  -0.00287   0.00000  Uiso   1.00
O7     O     0.09743   0.64083   0.79439   0.00000  Uiso   1.00
O8     O     0.14595   0.70297   0.87965   0.00000  Uiso   1.00
O9     O     0.06843   0.66431   1.03086   0.00000  Uiso   1.00
O10    O     1.01572   0.76987   0.99818   0.00000  Uiso   1.00
O11    O     0.17420   0.42738   0.90291   0.00000  Uiso   1.00
O12    O     1.06989   0.49474   0.90999   0.00000  Uiso   1.00
O13    O     0.15121   0.63357   1.03491   0.00000  Uiso   1.00
O14    O     0.21089   0.58780   0.92555   0.00000  Uiso   1.00
O15    O     0.17584   0.60483   0.73579   0.00000  Uiso   1.00
O16    O     0.25734   0.51390   0.75049   0.00000  Uiso   1.00
C17    C     0.26105   0.80397   0.97322   0.00000  Uiso   1.00
C18    C     0.09756   0.70271   0.83467   0.00000  Uiso   1.00
C19    C     1.00972   0.70314   1.01660   0.00000  Uiso   1.00
C20    C     0.59417   0.72781   0.19084   0.00000  Uiso   1.00
Sm21   Sm    0.68622   0.92928   0.07919   0.00000  Uiso   1.00
Sm22   Sm    0.61887   0.84086   0.10105   0.00000  Uiso   1.00
C23    C     0.76134   0.76476   0.02476   0.00000  Uiso   1.00
C24    C     0.51004   0.83339   1.01396   0.00000  Uiso   1.00
O25    O     0.67603   0.96039   0.95749   0.00000  Uiso   1.00
O26    O     0.74683   1.01288   1.02157   0.00000  Uiso   1.00
O27    O     0.54410   0.93579   0.17240   0.00000  Uiso   1.00
O28    O     0.60110   1.02529   0.12735   0.00000  Uiso   1.00
O29    O     0.72053   0.91718   0.19805   0.00000  Uiso   1.00
O30    O     0.77712   0.98175   0.12590   0.00000  Uiso   1.00
O31    O     0.64107   0.76985   0.20285   0.00000  Uiso   1.00
O32    O     0.55699   0.74794   0.13650   0.00000  Uiso   1.00
O33    O     0.77178   0.83306   0.03667   0.00000  Uiso   1.00
O34    O     0.69826   0.74942   0.03237   0.00000  Uiso   1.00
O35    O     0.55682   0.87524   0.00023   0.00000  Uiso   1.00
O36    O     0.52320   0.79077   0.06818   0.00000  Uiso   1.00
C37    C     0.72198   1.00453   0.95763   0.00000  Uiso   1.00
C38    C     0.54937   1.00685   0.16846   0.00000  Uiso   1.00
C39    C     0.77132   0.95438   0.19030   0.00000  Uiso   1.00
C40    C     0.84722   1.02619   0.43934   0.00000  Uiso   1.00
Sm41   Sm    0.96102   0.10089   0.71813   0.00000  Uiso   1.00
Sm42   Sm    0.83192   0.11612   0.57037   0.00000  Uiso   1.00
C43    C     0.97319   0.18949   0.54918   0.00000  Uiso   1.00
C44    C     0.70688   0.19485   0.53837   0.00000  Uiso   1.00
O45    O     0.93666   0.21589   0.78294   0.00000  Uiso   1.00
O46    O     0.04252   0.14942   0.77821   0.00000  Uiso   1.00
O47    O     0.76491   0.04551   0.63918   0.00000  Uiso   1.00
O48    O     0.86957   0.06039   0.66763   0.00000  Uiso   1.00
O49    O     1.01864  -0.01962   0.70836   0.00000  Uiso   1.00
O50    O     0.95015   1.02127   0.80941   0.00000  Uiso   1.00
O51    O     0.88950   0.01497   0.49149   0.00000  Uiso   1.00
O52    O     0.79647   1.08081   0.45660   0.00000  Uiso   1.00
O53    O     0.99374   0.16614   0.61410   0.00000  Uiso   1.00
O54    O     0.91243   0.18413   0.52243   0.00000  Uiso   1.00
O55    O     0.73701   0.21215   0.59753   0.00000  Uiso   1.00
O56    O     0.74720   0.14807   0.49067   0.00000  Uiso   1.00
C57    C     1.00175   0.21258   0.79808   0.00000  Uiso   1.00
C58    C     0.80761   0.04950   0.69115   0.00000  Uiso   1.00
C59    C     0.99106   0.96524   0.77256   0.00000  Uiso   1.00
C60    C     0.31979   0.44549   0.19403   0.00000  Uiso   1.00
Sm61   Sm    0.32991   0.33784   0.47659   0.00000  Uiso   1.00
Sm62   Sm    0.38617   0.42921   0.32249   0.00000  Uiso   1.00
C63    C     0.42000   0.25150   0.31153   0.00000  Uiso   1.00
C64    C     0.49484   0.50429   0.28601   0.00000  Uiso   1.00
O65    O     0.43316   0.34896   0.52607   0.00000  Uiso   1.00
O66    O     0.38777   0.24531   0.53869   0.00000  Uiso   1.00
O67    O     0.32839   0.54236   0.37619   0.00000  Uiso   1.00
O68    O     0.29267   0.44205   0.41782   0.00000  Uiso   1.00
O69    O     0.23904   0.29333   0.41966   0.00000  Uiso   1.00
O70    O     0.22304   0.31669   0.53535   0.00000  Uiso   1.00
O71    O     0.29360   0.41711   0.25190   0.00000  Uiso   1.00
O72    O     0.38007   0.46529   0.20251   0.00000  Uiso   1.00
O73    O     0.38156   0.25625   0.37542   0.00000  Uiso   1.00
O74    O     0.43801   0.31016   0.28042   0.00000  Uiso   1.00
O75    O     0.48947   0.47043   0.34728   0.00000  Uiso   1.00
O76    O     0.44844   0.49226   0.24031   0.00000  Uiso   1.00
C77    C     0.44213   0.27928   0.54379   0.00000  Uiso   1.00
C78    C     0.30258   0.51097   0.43222   0.00000  Uiso   1.00
C79    C     0.19674   0.29403   0.47646   0.00000  Uiso   1.00
N80    N     0.34715   0.88968   0.92856   0.00000  Uiso   1.00
N81    N     0.41498   0.89529   0.93666   0.00000  Uiso   1.00
C82    C     0.44327   0.83703   0.97665   0.00000  Uiso   1.00
C83    C     0.39188   0.79183   0.99326   0.00000  Uiso   1.00
C84    C     0.33165   0.82764   0.96302   0.00000  Uiso   1.00
H85    H     0.39588   0.74355   0.02859   0.00000  Uiso   1.00
H86    H     0.31186   0.92943   0.90242   0.00000  Uiso   1.00
H87    H     0.43964   0.94104   0.91915   0.00000  Uiso   1.00
N88    N     0.44067   0.05029   0.25630   0.00000  Uiso   1.00
N89    N     0.40827   0.11425   0.29379   0.00000  Uiso   1.00
C90    C     0.44164   0.17331   0.27475   0.00000  Uiso   1.00
C91    C     0.49876   0.14502   0.22197   0.00000  Uiso   1.00
C92    C     0.49671   0.06606   0.21234   0.00000  Uiso   1.00
H93    H     0.53893   0.17588   0.19769   0.00000  Uiso   1.00
H94    H     0.42513  -0.00319   0.26231   0.00000  Uiso   1.00
H95    H     0.36382   0.11700   0.33253   0.00000  Uiso   1.00
N96    N     0.53204   0.17226   0.49870   0.00000  Uiso   1.00
N97    N     0.60196   0.15739   0.48795   0.00000  Uiso   1.00
C98    C     0.62997   0.20922   0.52989   0.00000  Uiso   1.00
C99    C     0.57504   0.25998   0.56960   0.00000  Uiso   1.00
C100   C     0.51327   0.23458   0.54667   0.00000  Uiso   1.00
H101   H     0.57964   0.30923   0.60655   0.00000  Uiso   1.00
H102   H     0.49801   0.14506   0.46660   0.00000  Uiso   1.00
H103   H     0.63074   0.11753   0.44592   0.00000  Uiso   1.00
N104   N     0.78731   0.09543   0.89117   0.00000  Uiso   1.00
N105   N     0.81053   0.10483   0.82093   0.00000  Uiso   1.00
C106   C     0.78553   0.05600   0.77270   0.00000  Uiso   1.00
C107   C     0.74307   1.01304   0.81398   0.00000  Uiso   1.00
C108   C     0.74686   1.03955   0.88918   0.00000  Uiso   1.00
H109   H     0.71880   0.96498   0.79356   0.00000  Uiso   1.00
H110   H     0.80079   0.12506   0.93948   0.00000  Uiso   1.00
H111   H     0.84441   0.14335   0.80629   0.00000  Uiso   1.00
N112   N     0.88482   0.98074   0.24252   0.00000  Uiso   1.00
N113   N     0.90771   0.99288   0.31033   0.00000  Uiso   1.00
C114   C     0.85547   0.98539   0.36399   0.00000  Uiso   1.00
C115   C     0.79744   0.96646   0.32822   0.00000  Uiso   1.00
C116   C     0.81771   0.96512   0.25164   0.00000  Uiso   1.00
H117   H     0.74452   0.96401   0.35405   0.00000  Uiso   1.00
H118   H     0.91315   0.98690   0.19086   0.00000  Uiso   1.00
H119   H     0.95540   1.01341   0.31954   0.00000  Uiso   1.00
N120   N     0.27211   0.63952   0.59975   0.00000  Uiso   1.00
N121   N     0.29015   0.62408   0.52635   0.00000  Uiso   1.00
C122   C     0.29470   0.54804   0.50979   0.00000  Uiso   1.00
C123   C     0.28102   0.51326   0.57618   0.00000  Uiso   1.00
C124   C     0.26639   0.57335   0.63177   0.00000  Uiso   1.00
H125   H     0.27586   0.45398   0.58221   0.00000  Uiso   1.00
H126   H     0.25872   0.69480   0.62529   0.00000  Uiso   1.00
H127   H     0.29707   0.66525   0.48775   0.00000  Uiso   1.00
N128   N     0.31350   0.42295   0.05554   0.00000  Uiso   1.00
N129   N     0.28018   0.45958   0.00210   0.00000  Uiso   1.00
C130   C     0.23046   0.51621   0.03490   0.00000  Uiso   1.00
C131   C     0.23050   0.51440   0.11325   0.00000  Uiso   1.00
C132   C     0.28466   0.45525   0.12356   0.00000  Uiso   1.00
H133   H     0.20293   0.55700   0.15591   0.00000  Uiso   1.00
H134   H     0.35824   0.38037   0.04523   0.00000  Uiso   1.00
H135   H     0.29653   0.45080   0.94401   0.00000  Uiso   1.00
N136   N     0.03625   0.22412   0.42895   0.00000  Uiso   1.00
N137   N     0.09775   0.24794   0.40989   0.00000  Uiso   1.00
C138   C     0.12641   0.26895   0.47403   0.00000  Uiso   1.00
C139   C     0.08156   0.25771   0.53612   0.00000  Uiso   1.00
C140   C     0.02573   0.22729   0.50552   0.00000  Uiso   1.00
H141   H     0.09101   0.26542   0.59516   0.00000  Uiso   1.00
H142   H     0.00582   0.20004   0.39020   0.00000  Uiso   1.00
H143   H     0.12102   0.24612   0.35412   0.00000  Uiso   1.00
N144   N     0.97729   0.78551   0.84894   0.00000  Uiso   1.00
N145   N     0.95043   0.85615   0.83467   0.00000  Uiso   1.00
C146   C     1.00248   0.88882   0.80039   0.00000  Uiso   1.00
C147   C     0.06557   0.83722   0.79298   0.00000  Uiso   1.00
C148   C     1.04746   0.77266   0.82498   0.00000  Uiso   1.00
H149   H     0.11713   0.84607   0.76810   0.00000  Uiso   1.00
H150   H     0.94754   0.74776   0.87476   0.00000  Uiso   1.00
H151   H     0.89715   0.88121   0.84750   0.00000  Uiso   1.00
N152   N     0.08584   0.29731   0.76872   0.00000  Uiso   1.00
N153   N     0.11821   0.34717   0.80324   0.00000  Uiso   1.00
C154   C     1.08632   0.36456   0.87389   0.00000  Uiso   1.00
C155   C     1.03176   0.32151   0.88637   0.00000  Uiso   1.00
C156   C     1.03389   0.27951   0.81706   0.00000  Uiso   1.00
H157   H     0.99542   0.32061   0.93698   0.00000  Uiso   1.00
H158   H     0.10535   0.26902   0.71527   0.00000  Uiso   1.00
H159   H     0.15796   0.37515   0.77675   0.00000  Uiso   1.00
N160   N     0.91942   0.64037   0.95477   0.00000  Uiso   1.00
N161   N     0.84921   0.66057   0.95351   0.00000  Uiso   1.00
C162   C     0.82517   0.70581   1.01669   0.00000  Uiso   1.00
C163   C     0.88229   0.71470   0.05888   0.00000  Uiso   1.00
C164   C     0.94130   0.67454   1.01745   0.00000  Uiso   1.00
H165   H     0.88247   0.75813   0.10458   0.00000  Uiso   1.00
H166   H     0.95278   0.61542   0.90704   0.00000  Uiso   1.00
H167   H     0.82071   0.65214   0.90581   0.00000  Uiso   1.00
N168   N     0.58553   0.58379   0.32459   0.00000  Uiso   1.00
N169   N     0.60928   0.64567   0.30095   0.00000  Uiso   1.00
C170   C     0.58524   0.65984   0.23277   0.00000  Uiso   1.00
C171   C     0.54338   0.60570   0.21234   0.00000  Uiso   1.00
C172   C     0.54449   0.55903   0.27243   0.00000  Uiso   1.00
H173   H     0.51171   0.60505   0.16368   0.00000  Uiso   1.00
H174   H     0.59400   0.56217   0.37763   0.00000  Uiso   1.00
H175   H     0.64137   0.67740   0.33114   0.00000  Uiso   1.00
loop_
_geom_bond_atom_site_label_1
_geom_bond_atom_site_label_2
_geom_bond_distance
_geom_bond_site_symmetry_2
_ccdc_geom_bond_type
C0     O12     1.282   .     A
C0     C154    1.441   .     S
C0     O11     1.267   1_655 A
Sm1    O5      2.266   .     S
Sm1    O8      2.220   .     S
Sm1    O9      2.283   .     S
Sm1    O13     2.269   .     S
Sm1    O6      2.227   1_556 S
Sm1    O10     2.253   1_455 S
Sm2    O7      2.308   .     S
Sm2    O11     2.218   .     S
Sm2    O14     2.280   .     S
Sm2    O15     2.292   .     S
Sm2    O16     2.278   .     S
Sm2    O12     2.246   1_455 S
C3     O13     1.281   .     A
C3     O14     1.276   .     A
C3     C130    1.468   1_556 S
C4     O15     1.259   .     A
C4     O16     1.259   .     A
C4     C124    1.472   .     S
O5     C17     1.274   .     A
O6     Sm1     2.227   1_554 S
O6     C17     1.261   1_554 A
O7     C18     1.274   .     A
O8     C18     1.258   .     A
O9     C19     1.265   1_455 A
O10    C19     1.264   .     A
O10    Sm1     2.253   1_655 S
O11    C0      1.267   1_455 A
O12    Sm2     2.246   1_655 S
C17    C84     1.468   .     S
C17    O6      1.261   1_556 A
C18    C148    1.466   1_455 S
C19    C164    1.466   .     S
C19    O9      1.265   1_655 A
C20    O31     1.269   .     A
C20    O32     1.266   .     A
C20    C170    1.474   .     S
Sm21   O28     2.239   .     S
Sm21   O29     2.254   .     S
Sm21   O30     2.269   .     S
Sm21   O33     2.220   .     S
Sm21   O25     2.263   1_554 S
Sm21   O26     2.256   1_554 S
Sm22   O27     2.279   .     S
Sm22   O31     2.278   .     S
Sm22   O32     2.258   .     S
Sm22   O34     2.264   .     S
Sm22   O35     2.265   .     S
Sm22   O36     2.242   .     S
C23    O33     1.266   .     A
C23    O34     1.269   .     A
C23    C162    1.464   1_554 S
C24    C82     1.465   .     S
C24    O35     1.262   1_556 A
C24    O36     1.267   1_556 A
O25    C37     1.260   .     A
O25    Sm21    2.263   1_556 S
O26    C37     1.265   .     A
O26    Sm21    2.256   1_556 S
O27    C38     1.284   .     A
O28    C38     1.274   .     A
O29    C39     1.255   .     A
O30    C39     1.266   .     A
O35    C24     1.262   1_554 A
O36    C24     1.267   1_554 A
C37    C108    1.471   .     S
C38    C92     1.474   1_565 S
C39    C116    1.467   .     S
C40    O52     1.262   .     A
C40    C114    1.465   .     S
C40    O51     1.269   1_565 A
Sm41   O45     2.247   .     S
Sm41   O48     2.207   .     S
Sm41   O49     2.233   .     S
Sm41   O53     2.323   .     S
Sm41   O46     2.194   1_655 S
Sm41   O50     2.220   1_545 S
Sm42   O47     2.260   .     S
Sm42   O51     2.289   .     S
Sm42   O54     2.239   .     S
Sm42   O55     2.280   .     S
Sm42   O56     2.240   .     S
Sm42   O52     2.252   1_545 S
C43    O53     1.306   .     A
C43    O54     1.293   .     A
C43    C140    1.482   1_655 S
C44    O55     1.272   .     A
C44    O56     1.271   .     A
C44    C98     1.463   .     S
O45    C57     1.277   .     A
O46    Sm41    2.194   1_455 S
O46    C57     1.273   1_455 A
O47    C58     1.274   .     A
O48    C58     1.267   .     A
O49    C59     1.275   1_545 A
O50    C59     1.276   .     A
O50    Sm41    2.220   1_565 S
O51    C40     1.269   1_545 A
O52    Sm42    2.252   1_565 S
C57    C156    1.451   .     S
C57    O46     1.273   1_655 A
C58    C106    1.464   .     S
C59    C146    1.456   .     S
C59    O49     1.275   1_565 A
C60    O71     1.268   .     A
C60    O72     1.265   .     A
C60    C132    1.460   .     S
Sm61   O65     2.235   .     S
Sm61   O66     2.216   .     S
Sm61   O68     2.213   .     S
Sm61   O69     2.280   .     S
Sm61   O70     2.306   .     S
Sm61   O73     2.294   .     S
Sm62   O67     2.253   .     S
Sm62   O71     2.257   .     S
Sm62   O72     2.253   .     S
Sm62   O74     2.246   .     S
Sm62   O75     2.261   .     S
Sm62   O76     2.259   .     S
C63    O73     1.291   .     A
C63    O74     1.283   .     A
C63    C90     1.481   .     S
C64    O75     1.272   .     A
C64    O76     1.271   .     A
C64    C172    1.472   .     S
O65    C77     1.279   .     A
O66    C77     1.280   .     A
O67    C78     1.268   .     A
O68    C78     1.279   .     A
O69    C79     1.238   .     A
O70    C79     1.259   .     A
C77    C100    1.461   .     S
C78    C122    1.474   .     S
C79    C138    1.475   .     S
N80    N81     1.325   .     A
N80    C84     1.348   .     A
N80    H86     1.045   .     S
N81    C82     1.347   .     A
N81    H87     1.048   .     S
C82    C83     1.382   .     A
C83    C84     1.376   .     A
C83    H85     1.083   1_556 S
H85    C83     1.083   1_554 S
N88    N89     1.320   .     A
N88    C92     1.346   .     A
N88    H94     1.045   .     S
N89    C90     1.351   .     A
N89    H95     1.041   .     S
C90    C91     1.389   .     A
C91    C92     1.407   .     A
C91    H93     1.084   .     S
C92    C38     1.474   1_545 S
N96    N97     1.311   .     A
N96    C100    1.339   .     A
N96    H102    1.045   .     S
N97    C98     1.345   .     A
N97    H103    1.054   .     S
C98    C99     1.386   .     A
C99    C100    1.399   .     A
C99    H101    1.079   .     S
N104   N105    1.315   .     A
N104   H110    1.046   .     S
N104   C108    1.345   1_545 A
N105   C106    1.343   .     A
N105   H111    1.039   .     S
C106   C107    1.390   1_545 A
C107   C108    1.395   .     A
C107   H109    1.087   .     S
C107   C106    1.390   1_565 A
C108   N104    1.345   1_565 A
N112   N113    1.321   .     A
N112   C116    1.347   .     A
N112   H118    1.046   .     S
N113   C114    1.349   .     A
N113   H119    1.047   .     S
C114   C115    1.385   .     A
C115   C116    1.378   .     A
C115   H117    1.082   .     S
N120   N121    1.319   .     A
N120   C124    1.346   .     A
N120   H126    1.041   .     S
N121   C122    1.351   .     A
N121   H127    1.043   .     S
C122   C123    1.382   .     A
C123   C124    1.388   .     A
C123   H125    1.081   .     S
N128   N129    1.318   .     A
N128   C132    1.343   .     A
N128   H134    1.042   .     S
N129   C130    1.340   .     A
N129   H135    1.046   1_554 S
C130   C131    1.386   .     A
C130   C3      1.468   1_554 S
C131   C132    1.379   .     A
C131   H133    1.081   .     S
H135   N129    1.046   1_556 S
N136   N137    1.330   .     A
N136   C140    1.350   .     A
N136   H142    1.042   .     S
N137   C138    1.350   .     A
N137   H143    1.047   .     S
C138   C139    1.383   .     A
C139   C140    1.391   .     A
C139   H141    1.076   .     S
C140   C43     1.482   1_455 S
N144   N145    1.321   .     A
N144   C148    1.349   .     A
N144   H150    1.044   .     S
N145   C146    1.346   .     A
N145   H151    1.043   .     S
C146   C147    1.382   1_655 A
C147   H149    1.082   .     S
C147   C146    1.382   1_455 A
C147   C148    1.384   1_455 A
C148   C147    1.384   1_655 A
C148   C18     1.466   1_655 S
N152   N153    1.302   .     A
N152   H158    1.058   .     S
N152   C156    1.345   1_455 A
N153   H159    1.062   .     S
N153   C154    1.345   1_455 A
C154   C155    1.392   .     A
C154   N153    1.345   1_655 A
C155   C156    1.392   .     A
C155   H157    1.092   .     S
C156   N152    1.345   1_655 A
N160   N161    1.327   .     A
N160   C164    1.355   .     A
N160   H166    1.050   .     S
N161   C162    1.345   .     A
N161   H167    1.050   .     S
C162   C163    1.383   1_556 A
C162   C23     1.464   1_556 S
C163   H165    1.085   .     S
C163   C162    1.383   1_554 A
C163   C164    1.368   1_554 A
C164   C163    1.368   1_556 A
N168   N169    1.326   .     A
N168   C172    1.347   .     A
N168   H174    1.045   .     S
N169   C170    1.341   .     A
N169   H175    1.045   .     S
C170   C171    1.387   .     A
C171   C172    1.381   .     A
C171   H173    1.084   .     S
