data_lcy+N505+E191
_audit_creation_date              2025-01-21
_audit_creation_method            'Materials Studio'
_symmetry_space_group_name_H-M    'P1'
_symmetry_Int_Tables_number       1
_symmetry_cell_setting            triclinic
loop_
_symmetry_equiv_pos_as_xyz
  x,y,z
_cell_length_a                    30.8640
_cell_length_b                    29.5574
_cell_length_c                    28.3377
_cell_angle_alpha                 93.2753
_cell_angle_beta                  93.6481
_cell_angle_gamma                 100.4173
loop_
_atom_site_label
_atom_site_type_symbol
_atom_site_fract_x
_atom_site_fract_y
_atom_site_fract_z
_atom_site_U_iso_or_equiv
_atom_site_adp_type
_atom_site_occupancy
Yb0    Yb    0.15635   0.60734   0.81021   0.00000  Uiso   1.00
Yb1    Yb    0.10285   0.66257   0.92605   0.00000  Uiso   1.00
C2     C     0.03385   0.67897   0.95657   0.00000  Uiso   1.00
O3     O     0.09278   0.56974   0.81801   0.00000  Uiso   1.00
O4     O     0.11410   0.58846   0.74833   0.00000  Uiso   1.00
O5     O     0.13871   0.67562   0.81511   0.00000  Uiso   1.00
O6     O     0.07792   0.66558   0.85434   0.00000  Uiso   1.00
O7     O     0.18316   0.54913   0.79293   0.00000  Uiso   1.00
O8     O     0.21503   0.61795   0.77508   0.00000  Uiso   1.00
O9     O     0.16679   0.70113   0.92506   0.00000  Uiso   1.00
O10    O     0.14366   0.67216   0.99051   0.00000  Uiso   1.00
C11    C     0.08655   0.56313   0.77256   0.00000  Uiso   1.00
O12    O     0.19017   0.61072   0.87997   0.00000  Uiso   1.00
O13    O     0.12453   0.60055   0.90523   0.00000  Uiso   1.00
O14    O     0.06656   0.71187   0.95066   0.00000  Uiso   1.00
C15    C     0.10383   0.68913   0.82797   0.00000  Uiso   1.00
O16    O     0.03967   0.63742   0.94669   0.00000  Uiso   1.00
C17    C     0.21259   0.57381   0.77036   0.00000  Uiso   1.00
C18    C     0.17579   0.69434   0.96884   0.00000  Uiso   1.00
C19    C     0.16504   0.59976   0.91286   0.00000  Uiso   1.00
Yb20   Yb    0.65927   0.85265   0.09894   0.00000  Uiso   1.00
Yb21   Yb    0.56371   0.90835   0.17155   0.00000  Uiso   1.00
C22    C     0.53142   0.97564   0.19606   0.00000  Uiso   1.00
O23    O     0.64523   0.90728   0.05947   0.00000  Uiso   1.00
O24    O     0.71330   0.90074   0.08027   0.00000  Uiso   1.00
O25    O     0.66446   0.88944   0.16906   0.00000  Uiso   1.00
O26    O     0.62821   0.94834   0.16848   0.00000  Uiso   1.00
O27    O     0.67251   0.80902   0.04224   0.00000  Uiso   1.00
O28    O     0.69354   0.79978   0.11586   0.00000  Uiso   1.00
O29    O     0.58038   0.85374   0.20813   0.00000  Uiso   1.00
O30    O     0.51112   0.85597   0.18737   0.00000  Uiso   1.00
C31    C     0.68685   0.92068   0.05531   0.00000  Uiso   1.00
O32    O     0.59431   0.80962   0.10198   0.00000  Uiso   1.00
O33    O     0.57193   0.87478   0.10519   0.00000  Uiso   1.00
O34    O     0.54859   0.95199   0.22679   0.00000  Uiso   1.00
C35    C     0.65906   0.92926   0.18540   0.00000  Uiso   1.00
O36    O     0.53223   0.96237   0.15193   0.00000  Uiso   1.00
C37    C     0.69532   0.78890   0.07142   0.00000  Uiso   1.00
C38    C     0.53956   0.83392   0.20650   0.00000  Uiso   1.00
C39    C     0.56239   0.83135   0.10016   0.00000  Uiso   1.00
Yb40   Yb    0.91786   0.06173   0.65917   0.00000  Uiso   1.00
Yb41   Yb    0.86544   0.16411   0.59289   0.00000  Uiso   1.00
C42    C     0.79778   0.19245   0.57004   0.00000  Uiso   1.00
O43    O     0.86538   0.07944   0.69560   0.00000  Uiso   1.00
O44    O     0.87001   0.00723   0.68022   0.00000  Uiso   1.00
O45    O     0.88294   0.05559   0.58811   0.00000  Uiso   1.00
O46    O     0.82996   0.09615   0.59697   0.00000  Uiso   1.00
O47    O     0.95874   0.05006   0.71794   0.00000  Uiso   1.00
O48    O     0.96850   0.02507   0.64571   0.00000  Uiso   1.00
O49    O     0.91917   0.15212   0.55532   0.00000  Uiso   1.00
O50    O     0.91256   0.22247   0.57859   0.00000  Uiso   1.00
C51    C     0.85077   0.03685   0.70179   0.00000  Uiso   1.00
O52    O     0.96017   0.12940   0.65530   0.00000  Uiso   1.00
O53    O     0.89847   0.15374   0.65799   0.00000  Uiso   1.00
O54    O     0.82176   0.17836   0.53850   0.00000  Uiso   1.00
C55    C     0.84632   0.06657   0.57339   0.00000  Uiso   1.00
O56    O     0.81171   0.19202   0.61396   0.00000  Uiso   1.00
C57    C     0.97894   0.02574   0.69057   0.00000  Uiso   1.00
C58    C     0.93552   0.19561   0.55800   0.00000  Uiso   1.00
C59    C     0.93994   0.16292   0.66130   0.00000  Uiso   1.00
Yb60   Yb    0.34288   0.40207   0.30958   0.00000  Uiso   1.00
Yb61   Yb    0.38870   0.34179   0.42277   0.00000  Uiso   1.00
C62    C     0.45274   0.31386   0.45748   0.00000  Uiso   1.00
O63    O     0.40717   0.43697   0.33236   0.00000  Uiso   1.00
O64    O     0.38657   0.42084   0.25700   0.00000  Uiso   1.00
O65    O     0.35877   0.33277   0.30600   0.00000  Uiso   1.00
O66    O     0.41745   0.34604   0.35666   0.00000  Uiso   1.00
O67    O     0.31764   0.46168   0.29655   0.00000  Uiso   1.00
O68    O     0.28423   0.39373   0.26527   0.00000  Uiso   1.00
O69    O     0.32290   0.30881   0.40435   0.00000  Uiso   1.00
O70    O     0.34669   0.32888   0.47854   0.00000  Uiso   1.00
C71    C     0.41510   0.44349   0.28893   0.00000  Uiso   1.00
O72    O     0.30867   0.39876   0.37440   0.00000  Uiso   1.00
O73    O     0.37291   0.40796   0.41376   0.00000  Uiso   1.00
O74    O     0.41814   0.28555   0.43893   0.00000  Uiso   1.00
C75    C     0.39440   0.32152   0.32283   0.00000  Uiso   1.00
O76    O     0.45138   0.35734   0.45834   0.00000  Uiso   1.00
C77    C     0.28731   0.43797   0.26719   0.00000  Uiso   1.00
C78    C     0.31409   0.31108   0.44826   0.00000  Uiso   1.00
C79    C     0.33244   0.40994   0.41312   0.00000  Uiso   1.00
Ni80   Ni    0.36784   0.74819   0.04982   0.00000  Uiso   1.00
C81    C     0.51517   0.80857   0.09210   0.00000  Uiso   1.00
C82    C     0.50127   0.76041   0.08799   0.00000  Uiso   1.00
C83    C     0.45619   0.74160   0.07713   0.00000  Uiso   1.00
C84    C     0.43891   0.81639   0.07572   0.00000  Uiso   1.00
C85    C     0.48308   0.83641   0.08599   0.00000  Uiso   1.00
H86    H     0.20961   0.67739   1.05759   0.00000  Uiso   1.00
H87    H     0.24670   0.74067   0.92873   0.00000  Uiso   1.00
H88    H     0.32354   0.75939   0.96255   0.00000  Uiso   1.00
H89    H     0.28812   0.69799   1.08903   0.00000  Uiso   1.00
N90    N     0.30951   0.72923   1.02699   0.00000  Uiso   1.00
N91    N     0.42624   0.76990   0.07089   0.00000  Uiso   1.00
H92    H     0.52491   0.73773   0.09231   0.00000  Uiso   1.00
H93    H     0.44537   0.70460   0.07273   0.00000  Uiso   1.00
H94    H     0.41455   0.83805   0.07009   0.00000  Uiso   1.00
H95    H     0.49203   0.87368   0.08857   0.00000  Uiso   1.00
C96    C     0.22156   0.70819   0.99081   0.00000  Uiso   1.00
C97    C     0.25452   0.73106   0.96415   0.00000  Uiso   1.00
C98    C     0.29828   0.74131   0.98297   0.00000  Uiso   1.00
C99    C     0.27844   0.70695   1.05391   0.00000  Uiso   1.00
C100   C     0.23391   0.69585   1.03627   0.00000  Uiso   1.00
Ni101  Ni    0.45544   0.14490   0.25592   0.00000  Uiso   1.00
C102   C     0.40827   0.27840   0.30559   0.00000  Uiso   1.00
C103   C     0.44783   0.26734   0.32492   0.00000  Uiso   1.00
C104   C     0.46089   0.22674   0.30909   0.00000  Uiso   1.00
C105   C     0.39718   0.20731   0.25546   0.00000  Uiso   1.00
C106   C     0.38273   0.24778   0.27037   0.00000  Uiso   1.00
H107   H     0.49160   0.03032   0.13896   0.00000  Uiso   1.00
H108   H     0.52682   1.01252   0.28595   0.00000  Uiso   1.00
H109   H     0.49505   0.08085   0.30838   0.00000  Uiso   1.00
H110   H     0.46068   0.09833   0.16470   0.00000  Uiso   1.00
N111   N     0.47622   0.09244   0.23763   0.00000  Uiso   1.00
N112   N     0.43567   0.19775   0.27501   0.00000  Uiso   1.00
H113   H     0.46865   0.28982   0.35211   0.00000  Uiso   1.00
H114   H     0.49132   0.21819   0.32396   0.00000  Uiso   1.00
H115   H     0.37772   0.18355   0.22838   0.00000  Uiso   1.00
H116   H     0.35200   0.25494   0.25466   0.00000  Uiso   1.00
C117   C     0.51184   0.01593   0.21052   0.00000  Uiso   1.00
C118   C     0.51232   0.03051   0.25859   0.00000  Uiso   1.00
C119   C     0.49427   0.06910   0.27142   0.00000  Uiso   1.00
C120   C     0.47499   0.07892   0.19083   0.00000  Uiso   1.00
C121   C     0.49267   0.04049   0.17640   0.00000  Uiso   1.00
Ni122  Ni    0.62306   0.25058   0.51725   0.00000  Uiso   1.00
C123   C     0.75592   0.20738   0.55677   0.00000  Uiso   1.00
C124   C     0.73125   0.22333   0.59196   0.00000  Uiso   1.00
C125   C     0.69105   0.23607   0.57903   0.00000  Uiso   1.00
C126   C     0.69908   0.21782   0.49782   0.00000  Uiso   1.00
C127   C     0.73952   0.20470   0.50915   0.00000  Uiso   1.00
H128   H     0.52782   0.36543   0.50224   0.00000  Uiso   1.00
H129   H     0.46853   0.22566   0.45195   0.00000  Uiso   1.00
H130   H     0.53861   0.20139   0.47646   0.00000  Uiso   1.00
H131   H     0.59637   0.33800   0.52559   0.00000  Uiso   1.00
N132   N     0.57045   0.26866   0.50193   0.00000  Uiso   1.00
N133   N     0.67587   0.23297   0.53271   0.00000  Uiso   1.00
H134   H     0.74280   0.22582   0.62907   0.00000  Uiso   1.00
H135   H     0.67182   0.24847   0.60589   0.00000  Uiso   1.00
H136   H     0.68611   0.21594   0.46124   0.00000  Uiso   1.00
H137   H     0.75756   0.19237   0.48105   0.00000  Uiso   1.00
C138   C     0.49267   0.29760   0.47520   0.00000  Uiso   1.00
C139   C     0.49589   0.25095   0.46850   0.00000  Uiso   1.00
C140   C     0.53547   0.23711   0.48219   0.00000  Uiso   1.00
C141   C     0.56790   0.31382   0.50974   0.00000  Uiso   1.00
C142   C     0.52907   0.32917   0.49653   0.00000  Uiso   1.00
Ni143  Ni    0.75245  -0.00361   0.87601   0.00000  Uiso   1.00
C144   C     0.81759   0.02389   0.73632   0.00000  Uiso   1.00
C145   C     0.81057  -0.02057   0.75267   0.00000  Uiso   1.00
C146   C     0.78812   0.97116   0.79354   0.00000  Uiso   1.00
C147   C     0.77675   0.04838   0.80031   0.00000  Uiso   1.00
C148   C     0.79905   0.05821   0.75969   0.00000  Uiso   1.00
H149   H     0.77254   0.95448   0.03906   0.00000  Uiso   1.00
H150   H     0.63796  -0.04561  -0.01367   0.00000  Uiso   1.00
H151   H     0.66610  -0.01517   0.91271   0.00000  Uiso   1.00
H152   H     0.79757   0.98488   0.96433   0.00000  Uiso   1.00
N153   N     0.73301   0.98602   0.93521   0.00000  Uiso   1.00
N154   N     0.77292   0.00582   0.81709   0.00000  Uiso   1.00
H155   H     0.82489   0.95226   0.73611   0.00000  Uiso   1.00
H156   H     0.78492   0.93772   0.80802   0.00000  Uiso   1.00
H157   H     0.76457   0.07535   0.81994   0.00000  Uiso   1.00
H158   H     0.80414   0.09310   0.74853   0.00000  Uiso   1.00
C159   C     0.70309   0.95191   0.01879   0.00000  Uiso   1.00
C160   C     0.67329  -0.03739  -0.01661   0.00000  Uiso   1.00
C161   C     0.68907  -0.02042   0.94145   0.00000  Uiso   1.00
C162   C     0.76282   0.97960   0.97043   0.00000  Uiso   1.00
C163   C     0.74852   0.96255   0.01283   0.00000  Uiso   1.00
Ni164  Ni    0.75845   1.00150   0.37572   0.00000  Uiso   1.00
C165   C     0.82495   0.04923   0.52575   0.00000  Uiso   1.00
C166   C     0.78707   1.06511   0.50844   0.00000  Uiso   1.00
C167   C     0.76800   1.05030   0.46296   0.00000  Uiso   1.00
C168   C     0.82184   0.00373   0.45114   0.00000  Uiso   1.00
C169   C     0.84228   0.01795   0.49651   0.00000  Uiso   1.00
H170   H     0.73293   0.90399   0.22657   0.00000  Uiso   1.00
H171   H     0.64488   0.00099   0.24530   0.00000  Uiso   1.00
H172   H     0.68602   0.02887   0.32215   0.00000  Uiso   1.00
H173   H     0.77198   0.93413   0.30364   0.00000  Uiso   1.00
N174   N     0.73080   0.98275   0.31635   0.00000  Uiso   1.00
N175   N     0.78554   0.02025   0.43533   0.00000  Uiso   1.00
H176   H     0.77234   1.08907   0.52966   0.00000  Uiso   1.00
H177   H     0.73907   1.06280   0.44953   0.00000  Uiso   1.00
H178   H     0.83497  -0.02040   0.42849   0.00000  Uiso   1.00
H179   H     0.87132   0.00476   0.50843   0.00000  Uiso   1.00
C180   C     0.68545   0.94999   0.22951   0.00000  Uiso   1.00
C181   C     0.67300  -0.01392   0.25681   0.00000  Uiso   1.00
C182   C     0.69619   0.00191   0.30044   0.00000  Uiso   1.00
C183   C     0.74434   0.94871   0.29012   0.00000  Uiso   1.00
C184   C     0.72205   0.93172   0.24646   0.00000  Uiso   1.00
Ni185  Ni    0.27433   0.48225   0.59873   0.00000  Uiso   1.00
C186   C     0.31487   0.42320   0.45813   0.00000  Uiso   1.00
C187   C     0.34393   0.43192   0.49927   0.00000  Uiso   1.00
C188   C     0.32959   0.44783   0.54135   0.00000  Uiso   1.00
C189   C     0.25813   0.44601   0.50435   0.00000  Uiso   1.00
C190   C     0.27112   0.42955   0.46102   0.00000  Uiso   1.00
H191   H     0.21124   0.48194   0.75297   0.00000  Uiso   1.00
H192   H     0.26658   0.61572   0.70664   0.00000  Uiso   1.00
H193   H     0.28903   0.57658   0.63545   0.00000  Uiso   1.00
H194   H     0.23489   0.44598   0.68083   0.00000  Uiso   1.00
N195   N     0.26219   0.50974   0.65475   0.00000  Uiso   1.00
N196   N     0.28773   0.45531   0.54299   0.00000  Uiso   1.00
H197   H     0.37795   0.42738   0.49893   0.00000  Uiso   1.00
H198   H     0.35222   0.45561   0.57273   0.00000  Uiso   1.00
H199   H     0.22491   0.45241   0.50687   0.00000  Uiso   1.00
H200   H     0.24780   0.42309   0.43012   0.00000  Uiso   1.00
C201   C     0.23714   0.55190   0.73560   0.00000  Uiso   1.00
C202   C     0.26045   0.57840   0.70267   0.00000  Uiso   1.00
C203   C     0.27270   0.55640   0.66209   0.00000  Uiso   1.00
C204   C     0.24229   0.48308   0.68752   0.00000  Uiso   1.00
C205   C     0.22945   0.50358   0.72856   0.00000  Uiso   1.00
Ni206  Ni    0.22026   0.53021   0.10095   0.00000  Uiso   1.00
C207   C     0.18093   0.58648   0.95947   0.00000  Uiso   1.00
C208   C     0.22568   0.58644   0.97178   0.00000  Uiso   1.00
C209   C     0.23786   0.57078   1.01563   0.00000  Uiso   1.00
C210   C     0.16320   0.55648   0.03495   0.00000  Uiso   1.00
C211   C     0.14965   0.57152   0.99192   0.00000  Uiso   1.00
H212   H     0.22786   0.39751   0.19469   0.00000  Uiso   1.00
H213   H     0.29140   0.53043   0.26087   0.00000  Uiso   1.00
H214   H     0.26493   0.56685   0.19125   0.00000  Uiso   1.00
H215   H     0.20266   0.43701   0.12667   0.00000  Uiso   1.00
N216   N     0.23319   0.50348   0.15576   0.00000  Uiso   1.00
N217   N     0.20643   0.55591   0.04579   0.00000  Uiso   1.00
H218   H     0.25068   0.59765   0.94767   0.00000  Uiso   1.00
H219   H     0.27210   0.56954   1.02516   0.00000  Uiso   1.00
H220   H     0.13903   0.54401   0.05947   0.00000  Uiso   1.00
H221   H     0.11474   0.57074   0.98389   0.00000  Uiso   1.00
C222   C     0.26182   0.46085   0.23326   0.00000  Uiso   1.00
C223   C     0.27083   0.50914   0.23262   0.00000  Uiso   1.00
C224   C     0.25621   0.52989   0.19312   0.00000  Uiso   1.00
C225   C     0.22127   0.45701   0.15692   0.00000  Uiso   1.00
C226   C     0.23525   0.43480   0.19566   0.00000  Uiso   1.00
Ni227  Ni    0.12389   0.25799   0.50250   0.00000  Uiso   1.00
C228   C     0.26851   0.29657   0.46239   0.00000  Uiso   1.00
C229   C     0.25818   0.30373   0.50950   0.00000  Uiso   1.00
C230   C     0.21428   0.29212   0.52114   0.00000  Uiso   1.00
C231   C     0.19084   0.26667   0.44126   0.00000  Uiso   1.00
C232   C     0.23415   0.27772   0.42810   0.00000  Uiso   1.00
H233   H     0.98464   0.28369   0.56808   0.00000  Uiso   1.00
H234   H     0.98728   0.14554   0.51107   0.00000  Uiso   1.00
H235   H     0.06344   0.17229   0.49028   0.00000  Uiso   1.00
H236   H     0.06142   0.30751   0.54609   0.00000  Uiso   1.00
N237   N     0.06599   0.24096   0.51733   0.00000  Uiso   1.00
N238   N     0.18168   0.27409   0.48704   0.00000  Uiso   1.00
H239   H     0.28365   0.31861   0.53690   0.00000  Uiso   1.00
H240   H     0.20615   0.29759   0.55736   0.00000  Uiso   1.00
H241   H     0.16432   0.25219   0.41488   0.00000  Uiso   1.00
H242   H     0.24060   0.27192   0.39134   0.00000  Uiso   1.00
C243   C     0.97961   0.21260   0.54115   0.00000  Uiso   1.00
C244   C     0.00242   0.18144   0.51874   0.00000  Uiso   1.00
C245   C     0.04569   0.19641   0.50705   0.00000  Uiso   1.00
C246   C     0.04453   0.27224   0.53827   0.00000  Uiso   1.00
C247   C     1.00095   0.25872   0.55043   0.00000  Uiso   1.00
Ni248  Ni    0.06252   0.87216   0.76543   0.00000  Uiso   1.00
C249   C     1.00873   0.99610   0.70963   0.00000  Uiso   1.00
C250   C     1.02599   0.96625   0.67870   0.00000  Uiso   1.00
C251   C     1.04502   0.93081   0.69681   0.00000  Uiso   1.00
C252   C     0.03326   0.95553   0.77522   0.00000  Uiso   1.00
C253   C     0.01395   0.99149   0.75862   0.00000  Uiso   1.00
H254   H     0.15096   0.74927   0.77129   0.00000  Uiso   1.00
H255   H     0.03560   0.73173   0.85210   0.00000  Uiso   1.00
H256   H     0.02106   0.80631   0.82674   0.00000  Uiso   1.00
H257   H     0.13357   0.82338   0.74760   0.00000  Uiso   1.00
N258   N     0.07671   0.81829   0.78628   0.00000  Uiso   1.00
N259   N     0.04710   0.92533   0.74415   0.00000  Uiso   1.00
H260   H     1.02229   0.96837   0.64067   0.00000  Uiso   1.00
H261   H     1.05592   0.90606   0.67286   0.00000  Uiso   1.00
H262   H     0.03501   0.95017   0.81268   0.00000  Uiso   1.00
H263   H     0.00072   0.01353   0.78361   0.00000  Uiso   1.00
C264   C     0.09458   0.73417   0.81367   0.00000  Uiso   1.00
C265   C     0.05786   0.75109   0.82936   0.00000  Uiso   1.00
C266   C     0.04955   0.79342   0.81516   0.00000  Uiso   1.00
C267   C     0.11267   0.80304   0.77079   0.00000  Uiso   1.00
C268   C     0.12231   0.76091   0.78421   0.00000  Uiso   1.00
Ni269  Ni    0.01084   0.36821   0.70271   0.00000  Uiso   1.00
C270   C     0.05621   0.52208   0.75022   0.00000  Uiso   1.00
C271   C     0.03114   0.49193   0.77892   0.00000  Uiso   1.00
C272   C     0.01632   0.44597   0.76254   0.00000  Uiso   1.00
C273   C     0.04672   0.45972   0.68884   0.00000  Uiso   1.00
C274   C     0.06206   0.50612   0.70373   0.00000  Uiso   1.00
H275   H     1.02796   0.20697   0.65562   0.00000  Uiso   1.00
H276   H     0.89905   0.23103   0.69031   0.00000  Uiso   1.00
H277   H     0.92932   0.31278   0.70419   0.00000  Uiso   1.00
H278   H     0.05612   0.29147   0.67167   0.00000  Uiso   1.00
N279   N     0.99362   0.30585   0.68807   0.00000  Uiso   1.00
N280   N     0.02590   0.43049   0.71904   0.00000  Uiso   1.00
H281   H     0.02624   0.50267   0.81507   0.00000  Uiso   1.00
H282   H    -0.00086   0.42192   0.78551   0.00000  Uiso   1.00
H283   H     1.05336   0.44654   0.65415   0.00000  Uiso   1.00
H284   H     0.08167   0.52808   0.68064   0.00000  Uiso   1.00
C285   C     0.96107   0.21199   0.67127   0.00000  Uiso   1.00
C286   C     0.93371   0.24273   0.68550   0.00000  Uiso   1.00
C287   C     0.95057   0.28933   0.69336   0.00000  Uiso   1.00
C288   C     1.02171   0.27733   0.67519   0.00000  Uiso   1.00
C289   C     1.00589   0.22954   0.66649   0.00000  Uiso   1.00
Ni290  Ni    0.85501   0.71506   0.01305   0.00000  Uiso   1.00
C291   C     0.72651   0.75988   0.05508   0.00000  Uiso   1.00
C292   C     0.75285   0.74127   0.08831   0.00000  Uiso   1.00
C293   C     0.79011   0.72496   0.07413   0.00000  Uiso   1.00
C294   C     0.77421   0.74179   0.99483   0.00000  Uiso   1.00
C295   C     0.73659   0.75841   0.00744   0.00000  Uiso   1.00
H296   H    -0.03927   0.61567  -0.02835   0.00000  Uiso   1.00
H297   H     0.01003   0.76252   0.97705   0.00000  Uiso   1.00
H298   H     0.93690   0.77532   0.99956   0.00000  Uiso   1.00
H299   H     0.88878   0.63171  -0.00608   0.00000  Uiso   1.00
N300   N     0.90960   0.70414   0.99785   0.00000  Uiso   1.00
N301   N     0.80075   0.72686   0.02838   0.00000  Uiso   1.00
H302   H     0.74648   0.74216   0.12547   0.00000  Uiso   1.00
H303   H     0.81196   0.71318   0.10015   0.00000  Uiso   1.00
H304   H     0.78365   0.74323   0.95875   0.00000  Uiso   1.00
H305   H     0.71756   0.77305   0.98086   0.00000  Uiso   1.00
C306   C    -0.00867   0.68796   0.97262   0.00000  Uiso   1.00
C307   C     0.98417   0.73319   0.98095   0.00000  Uiso   1.00
C308   C     0.94278   0.74053   0.99363   0.00000  Uiso   1.00
C309   C     0.91578   0.65999  -0.00949   0.00000  Uiso   1.00
C310   C    -0.04339   0.65108  -0.02212   0.00000  Uiso   1.00
Ni311  Ni    0.49954   0.63219   0.24909   0.00000  Uiso   1.00
C312   C     0.52742   0.78687   0.22226   0.00000  Uiso   1.00
C313   C     0.55978   0.76644   0.24547   0.00000  Uiso   1.00
C314   C     0.55029   0.71982   0.25402   0.00000  Uiso   1.00
C315   C     0.47748   0.71337   0.21878   0.00000  Uiso   1.00
C316   C     0.48552   0.76005   0.20963   0.00000  Uiso   1.00
H317   H     0.43182   0.47268   0.20101   0.00000  Uiso   1.00
H318   H     0.47409   0.50285   0.34966   0.00000  Uiso   1.00
H319   H     0.50747   0.58141   0.33164   0.00000  Uiso   1.00
H320   H     0.46626   0.55191   0.18642   0.00000  Uiso   1.00
N321   N     0.48814   0.57018   0.25835   0.00000  Uiso   1.00
N322   N     0.50997   0.69423   0.23996   0.00000  Uiso   1.00
H323   H     0.59258   0.78593   0.25567   0.00000  Uiso   1.00
H324   H     0.57539   0.70365   0.27090   0.00000  Uiso   1.00
H325   H     0.44565   0.69207   0.20800   0.00000  Uiso   1.00
H326   H     0.45994   0.77443   0.19114   0.00000  Uiso   1.00
C327   C     0.44989   0.48135   0.27676   0.00000  Uiso   1.00
C328   C     0.47380   0.51177   0.31312   0.00000  Uiso   1.00
C329   C     0.49257   0.55650   0.30310   0.00000  Uiso   1.00
C330   C     0.46943   0.53995   0.22163   0.00000  Uiso   1.00
C331   C     0.45019   0.49489   0.23003   0.00000  Uiso   1.00
loop_
_geom_bond_atom_site_label_1
_geom_bond_atom_site_label_2
_geom_bond_distance
_geom_bond_site_symmetry_2
_ccdc_geom_bond_type
Yb0    O3      2.104   .     S
Yb0    O4      2.103   .     S
Yb0    O5      2.182   .     S
Yb0    O7      2.087   .     S
Yb0    O8      2.105   .     S
Yb0    O12     2.164   .     S
Yb1    O6      2.139   .     S
Yb1    O9      2.095   .     S
Yb1    O10     2.127   .     S
Yb1    O13     2.127   .     S
Yb1    O14     2.107   .     S
Yb1    O16     2.090   .     S
C2     O14     1.295   .     A
C2     O16     1.291   .     A
C2     C306    1.479   .     S
O3     C11     1.288   .     A
O4     C11     1.287   .     A
O5     C15     1.281   .     A
O6     C15     1.271   .     A
O7     C17     1.286   .     A
O8     C17     1.292   .     A
O9     C18     1.289   .     A
O10    C18     1.295   .     A
C11    C270    1.475   .     S
O12    C19     1.269   .     A
O13    C19     1.260   .     A
C15    C264    1.484   .     S
C17    C201    1.471   .     S
C18    C96     1.484   .     S
C19    C207    1.478   .     S
Yb20   O23     2.108   .     S
Yb20   O24     2.103   .     S
Yb20   O25     2.192   .     S
Yb20   O27     2.109   .     S
Yb20   O28     2.100   .     S
Yb20   O32     2.181   .     S
Yb21   O26     2.133   .     S
Yb21   O29     2.090   .     S
Yb21   O30     2.120   .     S
Yb21   O33     2.127   .     S
Yb21   O34     2.100   .     S
Yb21   O36     2.097   .     S
C22    O34     1.293   .     A
C22    O36     1.292   .     A
C22    C117    1.479   1_565 S
O23    C31     1.289   .     A
O24    C31     1.289   .     A
O25    C35     1.283   .     A
O26    C35     1.273   .     A
O27    C37     1.291   .     A
O28    C37     1.289   .     A
O29    C38     1.286   .     A
O30    C38     1.295   .     A
C31    C159    1.477   .     S
O32    C39     1.270   .     A
O33    C39     1.262   .     A
C35    C180    1.485   .     S
C37    C291    1.479   .     S
C38    C312    1.476   .     S
C39    C81     1.488   .     S
Yb40   O43     2.102   .     S
Yb40   O44     2.120   .     S
Yb40   O45     2.205   .     S
Yb40   O47     2.107   .     S
Yb40   O48     2.099   .     S
Yb40   O52     2.195   .     S
Yb41   O46     2.120   .     S
Yb41   O49     2.098   .     S
Yb41   O50     2.122   .     S
Yb41   O53     2.115   .     S
Yb41   O54     2.094   .     S
Yb41   O56     2.086   .     S
C42    O54     1.293   .     A
C42    O56     1.292   .     A
C42    C123    1.472   .     S
O43    C51     1.284   .     A
O44    C51     1.291   .     A
O45    C55     1.282   .     A
O46    C55     1.266   .     A
O47    C57     1.291   .     A
O48    C57     1.290   .     A
O49    C58     1.289   .     A
O50    C58     1.295   .     A
C51    C144    1.477   .     S
O52    C59     1.272   .     A
O53    C59     1.256   .     A
C55    C165    1.485   .     S
C57    C249    1.479   1_545 S
C58    C243    1.481   .     S
C59    C285    1.482   .     S
Yb60   O63     2.107   .     S
Yb60   O64     2.104   .     S
Yb60   O65     2.189   .     S
Yb60   O67     2.093   .     S
Yb60   O68     2.104   .     S
Yb60   O72     2.174   .     S
Yb61   O66     2.124   .     S
Yb61   O69     2.107   .     S
Yb61   O70     2.116   .     S
Yb61   O73     2.125   .     S
Yb61   O74     2.092   .     S
Yb61   O76     2.085   .     S
C62    O74     1.293   .     A
C62    O76     1.292   .     A
C62    C138    1.471   .     S
O63    C71     1.289   .     A
O64    C71     1.288   .     A
O65    C75     1.277   .     A
O66    C75     1.264   .     A
O67    C77     1.287   .     A
O68    C77     1.291   .     A
O69    C78     1.291   .     A
O70    C78     1.293   .     A
C71    C327    1.477   .     S
O72    C79     1.273   .     A
O73    C79     1.260   .     A
C75    C102    1.483   .     S
C77    C222    1.473   .     S
C78    C228    1.482   .     S
C79    C186    1.477   .     S
Ni80   N91     1.849   .     S
Ni80   N90     1.849   1_554 S
C81    C82     1.406   .     A
C81    C85     1.406   .     A
C82    C83     1.409   .     A
C82    H92     1.083   .     S
C83    N91     1.364   .     A
C83    H93     1.082   .     S
C84    C85     1.390   .     A
C84    N91     1.356   .     A
C84    H94     1.082   .     S
C85    H95     1.083   .     S
H86    C100    1.083   .     S
H87    C97     1.083   .     S
H88    C98     1.082   .     S
H89    C99     1.082   .     S
N90    C98     1.358   .     A
N90    C99     1.363   .     A
N90    Ni80    1.849   1_556 S
C96    C97     1.404   .     A
C96    C100    1.407   .     A
C97    C98     1.394   .     A
C99    C100    1.406   .     A
Ni101  N111    1.842   .     S
Ni101  N112    1.842   .     S
C102   C103    1.406   .     A
C102   C106    1.405   .     A
C103   C104    1.393   .     A
C103   H113    1.083   .     S
C104   N112    1.357   .     A
C104   H114    1.082   .     S
C105   C106    1.403   .     A
C105   N112    1.361   .     A
C105   H115    1.082   .     S
C106   H116    1.083   .     S
H107   C121    1.083   .     S
H108   C118    1.083   1_565 S
H109   C119    1.082   .     S
H110   C120    1.082   .     S
N111   C119    1.360   .     A
N111   C120    1.359   .     A
C117   C118    1.403   .     A
C117   C121    1.405   .     A
C117   C22     1.479   1_545 S
C118   C119    1.397   .     A
C118   H108    1.083   1_545 S
C120   C121    1.398   .     A
Ni122  N132    1.833   .     S
Ni122  N133    1.833   .     S
C123   C124    1.403   .     A
C123   C127    1.404   .     A
C124   C125    1.394   .     A
C124   H134    1.083   .     S
C125   N133    1.358   .     A
C125   H135    1.082   .     S
C126   C127    1.396   .     A
C126   N133    1.359   .     A
C126   H136    1.082   .     S
C127   H137    1.083   .     S
H128   C142    1.083   .     S
H129   C139    1.083   .     S
H130   C140    1.082   .     S
H131   C141    1.082   .     S
N132   C140    1.359   .     A
N132   C141    1.358   .     A
C138   C139    1.403   .     A
C138   C142    1.403   .     A
C139   C140    1.396   .     A
C141   C142    1.393   .     A
Ni143  N154    1.841   .     S
Ni143  N153    1.841   1_545 S
C144   C145    1.403   .     A
C144   C148    1.406   .     A
C145   C146    1.398   1_545 A
C145   H155    1.083   1_545 S
C146   H156    1.082   .     S
C146   C145    1.398   1_565 A
C146   N154    1.360   1_565 A
C147   C148    1.396   .     A
C147   N154    1.358   .     A
C147   H157    1.082   .     S
C148   H158    1.083   .     S
H149   C163    1.083   .     S
H150   C160    1.083   .     S
H151   C161    1.082   .     S
H152   C162    1.082   .     S
N153   C162    1.359   .     A
N153   Ni143   1.841   1_565 S
N153   C161    1.359   1_565 A
N154   C146    1.360   1_545 A
H155   C145    1.083   1_565 S
C159   C163    1.404   .     A
C159   C160    1.406   1_565 A
C160   C159    1.406   1_545 A
C160   C161    1.398   1_554 A
C161   N153    1.359   1_545 A
C161   C160    1.398   1_556 A
C162   C163    1.396   1_556 A
C163   C162    1.396   1_554 A
Ni164  N174    1.845   .     S
Ni164  N175    1.845   1_565 S
C165   C169    1.405   .     A
C165   C166    1.407   1_545 A
C166   C167    1.395   .     A
C166   H176    1.083   .     S
C166   C165    1.407   1_565 A
C167   H177    1.082   .     S
C167   N175    1.358   1_565 A
C168   C169    1.402   .     A
C168   N175    1.362   .     A
C168   H178    1.082   .     S
C169   H179    1.083   .     S
H170   C184    1.083   .     S
H171   C181    1.083   .     S
H172   C182    1.082   .     S
H173   C183    1.082   .     S
N174   C183    1.359   .     A
N174   C182    1.361   1_565 A
N175   Ni164   1.845   1_545 S
N175   C167    1.358   1_545 A
C180   C184    1.407   .     A
C180   C181    1.406   1_565 A
C181   C182    1.400   .     A
C181   C180    1.406   1_545 A
C182   N174    1.361   1_545 A
C183   C184    1.397   .     A
Ni185  N195    1.833   .     S
Ni185  N196    1.833   .     S
C186   C187    1.407   .     A
C186   C190    1.403   .     A
C187   C188    1.385   .     A
C187   H197    1.083   .     S
C188   N196    1.353   .     A
C188   H198    1.082   .     S
C189   C190    1.403   .     A
C189   N196    1.363   .     A
C189   H199    1.082   .     S
C190   H200    1.083   .     S
H191   C205    1.083   .     S
H192   C202    1.083   .     S
H193   C203    1.082   .     S
H194   C204    1.082   .     S
N195   C203    1.359   .     A
N195   C204    1.357   .     A
C201   C202    1.403   .     A
C201   C205    1.405   .     A
C202   C203    1.395   .     A
C204   C205    1.393   .     A
Ni206  N216    1.836   .     S
Ni206  N217    1.836   .     S
C207   C208    1.403   .     A
C207   C211    1.407   .     A
C208   C209    1.403   .     A
C208   H218    1.083   .     S
C209   H219    1.081   .     S
C209   N217    1.363   1_556 A
C210   N217    1.354   .     A
C210   H220    1.082   .     S
C210   C211    1.387   1_554 A
C211   H221    1.083   .     S
C211   C210    1.387   1_556 A
H212   C226    1.083   .     S
H213   C223    1.083   .     S
H214   C224    1.082   .     S
H215   C225    1.082   .     S
N216   C224    1.358   .     A
N216   C225    1.359   .     A
N217   C209    1.363   1_554 A
C222   C223    1.405   .     A
C222   C226    1.403   .     A
C223   C224    1.396   .     A
C225   C226    1.395   .     A
Ni227  N237    1.849   .     S
Ni227  N238    1.848   .     S
C228   C229    1.405   .     A
C228   C232    1.404   .     A
C229   C230    1.402   .     A
C229   H239    1.083   .     S
C230   N238    1.362   .     A
C230   H240    1.082   .     S
C231   C232    1.397   .     A
C231   N238    1.359   .     A
C231   H241    1.082   .     S
C232   H242    1.083   .     S
H233   C247    1.083   .     S
H234   C244    1.083   1_655 S
H235   C245    1.082   .     S
H236   C246    1.082   .     S
N237   C245    1.359   .     A
N237   C246    1.362   .     A
C243   C247    1.405   .     A
C243   C244    1.404   1_655 A
C244   C245    1.396   .     A
C244   H234    1.083   1_455 S
C244   C243    1.404   1_455 A
C246   C247    1.403   1_455 A
C247   C246    1.403   1_655 A
Ni248  N258    1.845   .     S
Ni248  N259    1.845   .     S
C249   C250    1.404   .     A
C249   C253    1.404   1_655 A
C249   C57     1.479   1_565 S
C250   C251    1.397   .     A
C250   H260    1.083   .     S
C251   H261    1.082   .     S
C251   N259    1.359   1_655 A
C252   C253    1.399   .     A
C252   N259    1.360   .     A
C252   H262    1.082   .     S
C253   C249    1.404   1_455 A
C253   H263    1.083   1_565 S
H254   C268    1.082   .     S
H255   C265    1.082   .     S
H256   C266    1.082   .     S
H257   C267    1.081   .     S
N258   C266    1.359   .     A
N258   C267    1.359   .     A
N259   C251    1.359   1_455 A
H263   C253    1.083   1_545 S
C264   C265    1.406   .     A
C264   C268    1.406   .     A
C265   C266    1.398   .     A
C267   C268    1.399   .     A
Ni269  N280    1.840   .     S
Ni269  N279    1.839   1_455 S
C270   C271    1.403   .     A
C270   C274    1.407   .     A
C271   C272    1.395   .     A
C271   H281    1.083   .     S
C272   N280    1.359   .     A
C272   H282    1.082   .     S
C273   C274    1.399   .     A
C273   N280    1.359   .     A
C273   H283    1.082   1_455 S
C274   H284    1.083   .     S
H275   C289    1.083   .     S
H276   C286    1.083   .     S
H277   C287    1.082   .     S
H278   C288    1.082   1_455 S
N279   C287    1.351   .     A
N279   C288    1.366   .     A
N279   Ni269   1.839   1_655 S
H283   C273    1.082   1_655 S
C285   C286    1.407   .     A
C285   C289    1.405   .     A
C286   C287    1.381   .     A
C288   C289    1.411   .     A
C288   H278    1.082   1_655 S
Ni290  N301    1.844   .     S
Ni290  N300    1.844   1_554 S
C291   C292    1.405   .     A
C291   C295    1.404   .     A
C292   C293    1.398   .     A
C292   H302    1.083   .     S
C293   N301    1.359   .     A
C293   H303    1.082   .     S
C294   H304    1.082   .     S
C294   C295    1.399   1_556 A
C294   N301    1.360   1_556 A
C295   C294    1.399   1_554 A
C295   H305    1.083   1_554 S
H296   C310    1.083   .     S
H297   C307    1.083   1_455 S
H298   C308    1.082   .     S
H299   C309    1.082   .     S
N300   C308    1.361   .     A
N300   Ni290   1.844   1_556 S
N300   C309    1.359   1_556 A
N301   C294    1.360   1_554 A
H305   C295    1.083   1_556 S
C306   C307    1.403   1_455 A
C306   C310    1.406   1_556 A
C307   C308    1.399   .     A
C307   H297    1.083   1_655 S
C307   C306    1.403   1_655 A
C309   N300    1.359   1_554 A
C309   C310    1.397   1_655 A
C310   C306    1.406   1_554 A
C310   C309    1.397   1_455 A
Ni311  N321    1.840   .     S
Ni311  N322    1.840   .     S
C312   C313    1.405   .     A
C312   C316    1.403   .     A
C313   C314    1.394   .     A
C313   H323    1.083   .     S
C314   N322    1.357   .     A
C314   H324    1.082   .     S
C315   C316    1.399   .     A
C315   N322    1.361   .     A
C315   H325    1.082   .     S
C316   H326    1.083   .     S
H317   C331    1.083   .     S
H318   C328    1.083   .     S
H319   C329    1.081   .     S
H320   C330    1.082   .     S
N321   C329    1.359   .     A
N321   C330    1.358   .     A
C327   C328    1.404   .     A
C327   C331    1.405   .     A
C328   C329    1.397   .     A
C330   C331    1.397   .     A
