data_lcy+N394+E8
_audit_creation_date              2025-01-21
_audit_creation_method            'Materials Studio'
_symmetry_space_group_name_H-M    'P1'
_symmetry_Int_Tables_number       1
_symmetry_cell_setting            triclinic
loop_
_symmetry_equiv_pos_as_xyz
  x,y,z
_cell_length_a                    23.0577
_cell_length_b                    21.6801
_cell_length_c                    22.8687
_cell_angle_alpha                 98.1413
_cell_angle_beta                  99.8499
_cell_angle_gamma                 88.8978
loop_
_atom_site_label
_atom_site_type_symbol
_atom_site_fract_x
_atom_site_fract_y
_atom_site_fract_z
_atom_site_U_iso_or_equiv
_atom_site_adp_type
_atom_site_occupancy
Pr0    Pr    0.07850   0.69736   0.85745   0.00000  Uiso   1.00
Pr1    Pr    0.14451   0.61568   0.96103   0.00000  Uiso   1.00
O2     O     0.04260   0.64246   0.94996   0.00000  Uiso   1.00
O3     O     0.03552   0.74073   0.93389   0.00000  Uiso   1.00
O4     O     0.00832   0.74224   0.79261   0.00000  Uiso   1.00
O5     O     0.09078   0.78838   0.81998   0.00000  Uiso   1.00
O6     O     0.17021   0.68399   0.90666   0.00000  Uiso   1.00
O7     O     0.14709   0.77729   0.90180   0.00000  Uiso   1.00
C8     C     0.07556   0.54437   0.86546   0.00000  Uiso   1.00
C9     C     0.01679   0.69611   0.95572   0.00000  Uiso   1.00
C10    C     0.03938   0.78932   0.78978   0.00000  Uiso   1.00
C11    C     0.20026   0.54265   1.03502   0.00000  Uiso   1.00
C12    C     0.16856   0.60318   0.81061   0.00000  Uiso   1.00
C13    C     0.18589   0.74458   0.92286   0.00000  Uiso   1.00
O14    O     0.12987   0.64354   0.79413   0.00000  Uiso   1.00
O15    O     0.18098   0.58933   0.86575   0.00000  Uiso   1.00
O16    O     0.22831   0.57848   1.00895   0.00000  Uiso   1.00
O17    O     0.14396   0.54183   1.02044   0.00000  Uiso   1.00
O18    O     0.05661   0.60217   0.89215   0.00000  Uiso   1.00
O19    O     0.12578   0.53354   0.88737   0.00000  Uiso   1.00
Pr20   Pr    0.63156   0.86578   0.04905   0.00000  Uiso   1.00
Pr21   Pr    0.59933   0.76618   0.13323   0.00000  Uiso   1.00
O22    O     0.69509   0.77386   0.10744   0.00000  Uiso   1.00
O23    O     0.67995   0.78328   0.01114   0.00000  Uiso   1.00
O24    O     0.68476   0.93000   0.00759   0.00000  Uiso   1.00
O25    O     0.60039   0.89931   0.95851   0.00000  Uiso   1.00
O26    O     0.55132   0.81573   0.06053   0.00000  Uiso   1.00
O27    O     0.55548   0.82774   0.97103   0.00000  Uiso   1.00
C28    C     0.66447   0.86817   0.19534   0.00000  Uiso   1.00
C29    C     0.71175   0.76392   0.05556   0.00000  Uiso   1.00
C30    C     0.64708   0.93017   0.95982   0.00000  Uiso   1.00
C31    C     0.56859   0.70864   0.21722   0.00000  Uiso   1.00
C32    C     0.55085   0.92145   0.13718   0.00000  Uiso   1.00
C33    C     0.52669   0.80352   0.00148   0.00000  Uiso   1.00
O34    O     0.57880   0.93647   0.09725   0.00000  Uiso   1.00
O35    O     0.55220   0.86595   0.15408   0.00000  Uiso   1.00
O36    O     0.52995   0.72808   0.17644   0.00000  Uiso   1.00
O37    O     0.62267   0.71973   0.21558   0.00000  Uiso   1.00
O38    O     0.67788   0.83585   0.14205   0.00000  Uiso   1.00
O39    O     0.61835   0.85004   0.20549   0.00000  Uiso   1.00
Pr40   Pr    0.90612   0.16918   0.54865   0.00000  Uiso   1.00
Pr41   Pr    0.83864   0.11468   0.63894   0.00000  Uiso   1.00
O42    O     0.89336   0.19494   0.70317   0.00000  Uiso   1.00
O43    O     0.93572   0.23743   0.63445   0.00000  Uiso   1.00
O44    O     0.98101   0.23996   0.57830   0.00000  Uiso   1.00
O45    O     0.99002   0.16178   0.51060   0.00000  Uiso   1.00
O46    O     0.91123   0.07791   0.59236   0.00000  Uiso   1.00
O47    O     0.98161   0.13306   0.62338   0.00000  Uiso   1.00
C48    C     0.76719   0.20515   0.60898   0.00000  Uiso   1.00
C49    C     0.92283   0.23875   0.68746   0.00000  Uiso   1.00
C50    C     1.01295   0.21110   0.54250   0.00000  Uiso   1.00
C51    C     0.78450   0.07690   0.72291   0.00000  Uiso   1.00
C52    C     0.80862   0.05342   0.50161   0.00000  Uiso   1.00
C53    C     0.96256   0.08409   0.62786   0.00000  Uiso   1.00
O54    O     0.85221   0.08554   0.49242   0.00000  Uiso   1.00
O55    O     0.79197   0.05490   0.55345   0.00000  Uiso   1.00
O56    O     0.83098   0.05117   0.70758   0.00000  Uiso   1.00
O57    O     0.76379   0.12101   0.69373   0.00000  Uiso   1.00
O58    O     0.81962   0.19160   0.58618   0.00000  Uiso   1.00
O59    O     0.75817   0.17267   0.64615   0.00000  Uiso   1.00
Pr60   Pr    0.38019   0.42357   0.46655   0.00000  Uiso   1.00
Pr61   Pr    0.40815   0.32175   0.37933   0.00000  Uiso   1.00
O62    O     0.33685   0.27069   0.41306   0.00000  Uiso   1.00
O63    O     0.31995   0.34964   0.48540   0.00000  Uiso   1.00
O64    O     0.32654   0.50139   0.50815   0.00000  Uiso   1.00
O65    O     0.40085   0.46638   0.56454   0.00000  Uiso   1.00
O66    O     0.44682   0.35094   0.47137   0.00000  Uiso   1.00
O67    O     0.44818   0.41511   0.55319   0.00000  Uiso   1.00
C68    C     0.32588   0.37107   0.30533   0.00000  Uiso   1.00
C69    C     0.30872   0.29516   0.45503   0.00000  Uiso   1.00
C70    C     0.35498   0.50046   0.56123   0.00000  Uiso   1.00
C71    C     0.44777   0.22547   0.31071   0.00000  Uiso   1.00
C72    C     0.47366   0.45394   0.38613   0.00000  Uiso   1.00
C73    C     0.47134   0.36938   0.52966   0.00000  Uiso   1.00
O74    O     0.44630   0.47731   0.42921   0.00000  Uiso   1.00
O75    O     0.46974   0.39610   0.36146   0.00000  Uiso   1.00
O76    O     0.46920   0.24132   0.36553   0.00000  Uiso   1.00
O77    O     0.40418   0.25801   0.28987   0.00000  Uiso   1.00
O78    O     0.33879   0.39658   0.36657   0.00000  Uiso   1.00
O79    O     0.35243   0.32355   0.29008   0.00000  Uiso   1.00
C80    C     0.36376   0.79831   0.98740   0.00000  Uiso   1.00
C81    C     0.34895   0.74627   0.94392   0.00000  Uiso   1.00
N82    N     0.39225   0.71384   0.91962   0.00000  Uiso   1.00
C83    C     0.44990   0.73110   0.93679   0.00000  Uiso   1.00
C84    C     0.46515   0.78241   0.98123   0.00000  Uiso   1.00
N85    N     0.42146   0.81471   0.00557   0.00000  Uiso   1.00
N86    N     0.32008   0.83251   0.00943   0.00000  Uiso   1.00
C87    C     0.26216   0.81714  -0.01032   0.00000  Uiso   1.00
C88    C     0.24729   0.76429   0.94688   0.00000  Uiso   1.00
N89    N     0.29137   0.73010   0.92537   0.00000  Uiso   1.00
H90    H     0.48345   0.70466   0.91653   0.00000  Uiso   1.00
H91    H     0.22829   0.84527   0.00771   0.00000  Uiso   1.00
C92    C     0.46697   0.07187   0.22411   0.00000  Uiso   1.00
C93    C     0.52693   0.07436   0.21994   0.00000  Uiso   1.00
N94    N     0.55917   0.12599   0.24468   0.00000  Uiso   1.00
C95    C     0.53393   0.17581   0.27319   0.00000  Uiso   1.00
C96    C     0.47351   0.17446   0.27548   0.00000  Uiso   1.00
N97    N     0.44134   0.12227   0.25140   0.00000  Uiso   1.00
N98    N     0.43579   0.01868   0.20176   0.00000  Uiso   1.00
C99    C     0.46182   0.96812   0.17475   0.00000  Uiso   1.00
C100   C     0.52111   0.97177   0.16888   0.00000  Uiso   1.00
N101   N     0.55219   0.02476   0.19172   0.00000  Uiso   1.00
H102   H     0.56082   0.21595   0.29418   0.00000  Uiso   1.00
H103   H     0.43625   0.92636   0.15661   0.00000  Uiso   1.00
C104   C     0.61789   0.25896   0.56618   0.00000  Uiso   1.00
C105   C     0.62475   0.32398   0.57526   0.00000  Uiso   1.00
N106   N     0.67995   0.34893   0.58860   0.00000  Uiso   1.00
C107   C     0.72839   0.31178   0.59469   0.00000  Uiso   1.00
C108   C     0.72093   0.24695   0.58736   0.00000  Uiso   1.00
N109   N     0.66582   0.22248   0.57293   0.00000  Uiso   1.00
N110   N     0.56348   0.23315   0.55219   0.00000  Uiso   1.00
C111   C     0.51510   0.26948   0.54660   0.00000  Uiso   1.00
C112   C     0.52120   0.33467   0.55626   0.00000  Uiso   1.00
N113   N     0.57617   0.36073   0.56925   0.00000  Uiso   1.00
H114   H     0.77188   0.33242   0.60823   0.00000  Uiso   1.00
H115   H     0.47226   0.24746   0.53180   0.00000  Uiso   1.00
C116   C     0.68916   1.00960   0.81387   0.00000  Uiso   1.00
C117   C     0.72558   1.01810   0.87036   0.00000  Uiso   1.00
N118   N     0.77780   0.04819   0.87767   0.00000  Uiso   1.00
C119   C     0.79604   0.06936   0.83079   0.00000  Uiso   1.00
C120   C     0.76064   0.06009   0.77398   0.00000  Uiso   1.00
N121   N     0.70747   0.03079   0.76663   0.00000  Uiso   1.00
N122   N     0.63755   0.97780   0.80684   0.00000  Uiso   1.00
C123   C     0.62122   0.95360   0.85356   0.00000  Uiso   1.00
C124   C     0.65856   0.96107   0.90971   0.00000  Uiso   1.00
N125   N     0.70960   0.99353   0.91647   0.00000  Uiso   1.00
H126   H     0.83837   0.09238   0.83751   0.00000  Uiso   1.00
H127   H     0.58049   0.92733   0.84652   0.00000  Uiso   1.00
C128   C     0.76801   0.97234   0.34535   0.00000  Uiso   1.00
C129   C     0.70845   0.95976   0.34332   0.00000  Uiso   1.00
N130   N     0.68359   0.97458   0.39311   0.00000  Uiso   1.00
C131   C     0.71562   0.00193   0.44545   0.00000  Uiso   1.00
C132   C     0.77525   0.01584   0.44802   0.00000  Uiso   1.00
N133   N     0.80002   1.00097   0.39746   0.00000  Uiso   1.00
N134   N     0.79272   0.95493   0.29539   0.00000  Uiso   1.00
C135   C     0.76052   0.92443   0.24386   0.00000  Uiso   1.00
C136   C     0.70081   0.91124   0.24241   0.00000  Uiso   1.00
N137   N     0.67677   0.93010   0.29234   0.00000  Uiso   1.00
H138   H     0.69411   0.01457   0.48399   0.00000  Uiso   1.00
H139   H     0.78173   0.90878   0.20572   0.00000  Uiso   1.00
C140   C     0.24702   0.54097   0.66095   0.00000  Uiso   1.00
C141   C     0.28280   0.55428   0.71759   0.00000  Uiso   1.00
N142   N     0.34231   0.55277   0.72154   0.00000  Uiso   1.00
C143   C     0.36740   0.53840   0.67150   0.00000  Uiso   1.00
C144   C     0.33136   0.52655   0.61488   0.00000  Uiso   1.00
N145   N     0.27202   0.52775   0.61133   0.00000  Uiso   1.00
N146   N     0.18780   0.54092   0.65628   0.00000  Uiso   1.00
C147   C     0.16238   0.55555   0.70552   0.00000  Uiso   1.00
C148   C     0.19753   0.57190   0.76216   0.00000  Uiso   1.00
N149   N     0.25733   0.57034   0.76716   0.00000  Uiso   1.00
H150   H     0.41484   0.53542   0.67575   0.00000  Uiso   1.00
H151   H     0.11479   0.55699   0.70030   0.00000  Uiso   1.00
C152   C     0.23083   0.46471   0.17087   0.00000  Uiso   1.00
C153   C     0.28821   0.44314   0.16848   0.00000  Uiso   1.00
N154   N     0.31574   0.45467   0.12329   0.00000  Uiso   1.00
C155   C     0.28830   0.48666   0.07968   0.00000  Uiso   1.00
C156   C     0.23028   0.50675   0.08066   0.00000  Uiso   1.00
N157   N     0.20274   0.49539   0.12638   0.00000  Uiso   1.00
N158   N     0.20489   0.45571   0.21826   0.00000  Uiso   1.00
C159   C     0.23397   0.42591   0.26329   0.00000  Uiso   1.00
C160   C     0.29084   0.40310   0.25967   0.00000  Uiso   1.00
N161   N     0.31626   0.41228   0.21226   0.00000  Uiso   1.00
H162   H     0.31144   0.49597   0.04446   0.00000  Uiso   1.00
H163   H     0.21271   0.41941   0.30076   0.00000  Uiso   1.00
C164   C     0.18400   0.26279   0.52707   0.00000  Uiso   1.00
C165   C     0.14817   0.22565   0.48007   0.00000  Uiso   1.00
N166   N     0.16810   0.20696   0.42790   0.00000  Uiso   1.00
C167   C     0.22223   0.22449   0.42018   0.00000  Uiso   1.00
C168   C     0.25770   0.26299   0.46663   0.00000  Uiso   1.00
N169   N     0.23760   0.28103   0.51908   0.00000  Uiso   1.00
N170   N     0.16337   0.28270   0.57870   0.00000  Uiso   1.00
C171   C     0.10806   0.26752   0.58519   0.00000  Uiso   1.00
C172   C     0.07199   0.23086   0.53783   0.00000  Uiso   1.00
N173   N     0.09329   0.21036   0.48665   0.00000  Uiso   1.00
H174   H     0.23570   0.21186   0.37697   0.00000  Uiso   1.00
H175   H     0.09286   0.28306   0.62703   0.00000  Uiso   1.00
C176   C     0.97353   0.94042   0.69889   0.00000  Uiso   1.00
C177   C     0.03373   0.93703   0.72163   0.00000  Uiso   1.00
N178   N     0.07030   0.98319   0.71474   0.00000  Uiso   1.00
C179   C     0.04922   0.03251   0.68627   0.00000  Uiso   1.00
C180   C     0.98876   0.03575   0.66355   0.00000  Uiso   1.00
N181   N     0.95278  -0.01084   0.67038   0.00000  Uiso   1.00
N182   N     0.93664   0.89470   0.70516   0.00000  Uiso   1.00
C183   C     0.95702   0.84543   0.73329   0.00000  Uiso   1.00
C184   C     1.01725   0.84141   0.75650   0.00000  Uiso   1.00
N185   N     0.05434   0.88773   0.75016   0.00000  Uiso   1.00
H186   H     0.07940   0.06769   0.68007   0.00000  Uiso   1.00
H187   H     0.92627   0.81022   0.73831   0.00000  Uiso   1.00
C188   C     0.97353   0.41312   0.79281   0.00000  Uiso   1.00
C189   C     0.00829   0.38210   0.75319   0.00000  Uiso   1.00
N190   N     0.05881   0.40859   0.74646   0.00000  Uiso   1.00
C191   C     0.07710   0.46432   0.77820   0.00000  Uiso   1.00
C192   C     0.04366   0.49623   0.81891   0.00000  Uiso   1.00
N193   N     0.99218   0.46944   0.82555   0.00000  Uiso   1.00
N194   N     0.92333   0.38469   0.79967   0.00000  Uiso   1.00
C195   C     0.90685   0.32699   0.76899   0.00000  Uiso   1.00
C196   C     0.94240   0.29582   0.72978   0.00000  Uiso   1.00
N197   N    -0.00818   0.32517   0.72273   0.00000  Uiso   1.00
H198   H     0.12008   0.48103   0.77533   0.00000  Uiso   1.00
H199   H     0.86534   0.30692   0.77311   0.00000  Uiso   1.00
C200   C     0.84153   0.71419   0.98574   0.00000  Uiso   1.00
C201   C     0.88802   0.72432   0.03460   0.00000  Uiso   1.00
N202   N     0.87552   0.74274   0.09044   0.00000  Uiso   1.00
C203   C     0.81882   0.75227   0.09936   0.00000  Uiso   1.00
C204   C     0.77240   0.74397   0.05001   0.00000  Uiso   1.00
N205   N     0.78532   0.72490   0.99448   0.00000  Uiso   1.00
N206   N     0.85334   0.69602   0.92985   0.00000  Uiso   1.00
C207   C     0.90962   0.68825   0.92023   0.00000  Uiso   1.00
C208   C     0.95641   0.69983   0.96844   0.00000  Uiso   1.00
N209   N     0.94472   0.71739   0.02495   0.00000  Uiso   1.00
H210   H     0.81035   0.76878   0.14406   0.00000  Uiso   1.00
H211   H     0.91792   0.67430   0.87505   0.00000  Uiso   1.00
C212   C     0.55388   0.57477   0.29550   0.00000  Uiso   1.00
C213   C     0.51391   0.59730   0.33329   0.00000  Uiso   1.00
N214   N     0.49467   0.65698   0.33442   0.00000  Uiso   1.00
C215   C     0.51291   0.69492   0.29857   0.00000  Uiso   1.00
C216   C     0.55237   0.67212   0.26050   0.00000  Uiso   1.00
N217   N     0.57247   0.61281   0.26031   0.00000  Uiso   1.00
N218   N     0.57034   0.51414   0.29154   0.00000  Uiso   1.00
C219   C     0.54778   0.47453   0.32297   0.00000  Uiso   1.00
C220   C     0.50713   0.49673   0.36025   0.00000  Uiso   1.00
N221   N     0.49168   0.55789   0.36485   0.00000  Uiso   1.00
H222   H     0.49648   0.74208   0.29929   0.00000  Uiso   1.00
H223   H     0.55998   0.42585   0.31733   0.00000  Uiso   1.00
loop_
_geom_bond_atom_site_label_1
_geom_bond_atom_site_label_2
_geom_bond_distance
_geom_bond_site_symmetry_2
_ccdc_geom_bond_type
Pr0    O3      2.239   .     S
Pr0    O4      2.300   .     S
Pr0    O5      2.301   .     S
Pr0    O6      2.253   .     S
Pr0    O7      2.365   .     S
Pr0    O14     2.217   .     S
Pr0    O18     2.405   .     S
Pr1    O2      2.389   .     S
Pr1    O6      2.213   .     S
Pr1    O15     2.457   .     S
Pr1    O16     2.247   .     S
Pr1    O17     2.243   .     S
Pr1    O18     2.340   .     S
Pr1    O19     2.264   .     S
O2     C9      1.296   .     A
O3     C9      1.264   .     A
O4     C10     1.273   .     A
O5     C10     1.267   .     A
O6     C13     1.352   .     S
O7     C13     1.208   .     D
C8     O18     1.410   .     S
C8     O19     1.213   .     D
C8     C192    1.487   .     S
C9     C208    1.469   1_455 S
C10    C184    1.484   1_455 S
C11    O16     1.288   .     A
C11    O17     1.284   .     A
C11    C156    1.462   1_556 S
C12    O14     1.285   .     A
C12    O15     1.320   .     A
C12    C148    1.469   .     S
C13    C88     1.476   .     S
Pr20   O23     2.239   .     S
Pr20   O24     2.276   .     S
Pr20   O26     2.235   .     S
Pr20   O34     2.225   .     S
Pr20   O38     2.381   .     S
Pr20   O25     2.287   1_554 S
Pr20   O27     2.347   1_554 S
Pr21   O22     2.395   .     S
Pr21   O26     2.230   .     S
Pr21   O35     2.425   .     S
Pr21   O36     2.245   .     S
Pr21   O37     2.240   .     S
Pr21   O38     2.344   .     S
Pr21   O39     2.272   .     S
O22    C29     1.297   .     A
O23    C29     1.265   .     A
O24    C30     1.275   1_554 A
O25    C30     1.272   .     A
O25    Pr20    2.287   1_556 S
O26    C33     1.363   .     S
O27    Pr20    2.347   1_556 S
O27    C33     1.215   1_556 D
C28    O38     1.397   .     S
C28    O39     1.211   .     D
C28    C136    1.473   .     S
C29    C204    1.477   .     S
C30    C124    1.470   .     S
C30    O24     1.275   1_556 A
C31    O36     1.286   .     A
C31    O37     1.282   .     A
C31    C216    1.451   .     S
C32    O34     1.284   .     A
C32    O35     1.313   .     A
C32    C100    1.450   .     S
C33    O27     1.215   1_554 D
C33    C84     1.476   1_554 S
Pr40   O43     2.294   .     S
Pr40   O44     2.281   .     S
Pr40   O45     2.247   .     S
Pr40   O46     2.332   .     S
Pr40   O47     2.423   .     S
Pr40   O54     2.317   .     S
Pr40   O58     2.320   .     S
Pr41   O42     2.346   .     S
Pr41   O46     2.211   .     S
Pr41   O55     2.297   .     S
Pr41   O56     2.260   .     S
Pr41   O57     2.291   .     S
Pr41   O58     2.188   .     S
Pr41   O59     2.238   .     S
O42    C49     1.303   .     A
O43    C49     1.293   .     A
O44    C50     1.284   .     A
O45    C50     1.274   .     A
O46    C53     1.313   .     S
O47    C53     1.181   .     D
C48    O58     1.406   .     S
C48    O59     1.224   .     D
C48    C108    1.453   .     S
C49    C196    1.485   .     S
C50    C172    1.461   1_655 S
C51    O56     1.278   .     A
C51    O57     1.281   .     A
C51    C120    1.465   .     S
C52    O54     1.296   .     A
C52    O55     1.303   .     A
C52    C132    1.475   .     S
C53    C180    1.476   .     S
Pr60   O63     2.274   .     S
Pr60   O64     2.269   .     S
Pr60   O65     2.274   .     S
Pr60   O66     2.179   .     S
Pr60   O67     2.334   .     S
Pr60   O74     2.282   .     S
Pr60   O78     2.319   .     S
Pr61   O62     2.295   .     S
Pr61   O66     2.151   .     S
Pr61   O75     2.292   .     S
Pr61   O76     2.241   .     S
Pr61   O77     2.290   .     S
Pr61   O78     2.269   .     S
Pr61   O79     2.223   .     S
O62    C69     1.296   .     A
O63    C69     1.289   .     A
O64    C70     1.280   .     A
O65    C70     1.276   .     A
O66    C73     1.362   .     S
O67    C73     1.219   .     D
C68    O78     1.414   .     S
C68    O79     1.227   .     D
C68    C160    1.456   .     S
C69    C168    1.460   .     S
C70    C144    1.464   .     S
C71    O76     1.267   .     A
C71    O77     1.280   .     A
C71    C96     1.453   .     S
C72    O74     1.298   .     A
C72    O75     1.298   .     A
C72    C220    1.465   .     S
C73    C112    1.454   .     S
C80    C81     1.400   .     A
C80    N85     1.362   1_556 A
C80    N86     1.363   1_556 A
C81    N82     1.361   .     A
C81    N89     1.360   .     A
N82    C83     1.364   .     A
C83    C84     1.402   .     A
C83    H90     1.082   .     S
C84    N85     1.367   1_556 A
C84    C33     1.476   1_556 S
N85    C80     1.362   1_554 A
N85    C84     1.367   1_554 A
N86    C87     1.366   .     A
N86    C80     1.363   1_554 A
C87    H91     1.083   .     S
C87    C88     1.404   1_554 A
C88    N89     1.365   .     A
C88    C87     1.404   1_556 A
C92    C93     1.405   .     A
C92    N97     1.357   .     A
C92    N98     1.359   .     A
C93    N94     1.354   .     A
C93    N101    1.349   .     A
N94    C95     1.355   .     A
C95    C96     1.404   .     A
C95    H102    1.083   .     S
C96    N97     1.360   .     A
N98    C99     1.361   1_545 A
C99    C100    1.401   .     A
C99    H103    1.082   .     S
C99    N98     1.361   1_565 A
C100   N101    1.356   1_565 A
N101   C100    1.356   1_545 A
C104   C105    1.403   .     A
C104   N109    1.347   .     A
C104   N110    1.352   .     A
C105   N106    1.361   .     A
C105   N113    1.361   .     A
N106   C107    1.364   .     A
C107   C108    1.402   .     A
C107   H114    1.083   .     S
C108   N109    1.356   .     A
N110   C111    1.352   .     A
C111   C112    1.405   .     A
C111   H115    1.085   .     S
C112   N113    1.366   .     A
C116   C117    1.406   .     A
C116   N122    1.361   .     A
C116   N121    1.364   1_565 A
C117   N125    1.353   .     A
C117   N118    1.354   1_565 A
N118   C119    1.356   .     A
N118   C117    1.354   1_545 A
C119   C120    1.401   .     A
C119   H126    1.082   .     S
C120   N121    1.365   .     A
N121   C116    1.364   1_545 A
N122   C123    1.365   .     A
C123   C124    1.409   .     A
C123   H127    1.084   .     S
C124   N125    1.358   .     A
C128   C129    1.397   .     A
C128   N133    1.363   .     A
C128   N134    1.366   .     A
C129   N130    1.357   .     A
C129   N137    1.349   .     A
N130   C131    1.358   1_565 A
C131   C132    1.403   .     A
C131   H138    1.083   .     S
C131   N130    1.358   1_545 A
C132   N133    1.371   1_545 A
N133   C132    1.371   1_565 A
N134   C135    1.370   .     A
C135   C136    1.405   .     A
C135   H139    1.082   .     S
C136   N137    1.362   .     A
C140   C141    1.407   .     A
C140   N145    1.352   .     A
C140   N146    1.351   .     A
C141   N142    1.360   .     A
C141   N149    1.364   .     A
N142   C143    1.364   .     A
C143   C144    1.407   .     A
C143   H150    1.083   .     S
C144   N145    1.357   .     A
N146   C147    1.353   .     A
C147   C148    1.408   .     A
C147   H151    1.084   .     S
C148   N149    1.364   .     A
C152   C153    1.402   .     A
C152   N157    1.359   .     A
C152   N158    1.362   .     A
C153   N154    1.355   .     A
C153   N161    1.349   .     A
N154   C155    1.356   .     A
C155   C156    1.402   .     A
C155   H162    1.082   .     S
C156   N157    1.365   .     A
C156   C11     1.462   1_554 S
N158   C159    1.365   .     A
C159   C160    1.404   .     A
C159   H163    1.084   .     S
C160   N161    1.357   .     A
C164   C165    1.401   .     A
C164   N169    1.354   .     A
C164   N170    1.359   .     A
C165   N166    1.357   .     A
C165   N173    1.353   .     A
N166   C167    1.359   .     A
C167   C168    1.404   .     A
C167   H174    1.083   .     S
C168   N169    1.363   .     A
N170   C171    1.361   .     A
C171   C172    1.404   .     A
C171   H175    1.082   .     S
C172   N173    1.360   .     A
C172   C50     1.461   1_455 S
C176   N182    1.357   .     A
C176   C177    1.401   1_655 A
C176   N181    1.356   1_565 A
C177   N178    1.364   .     A
C177   N185    1.366   .     A
C177   C176    1.401   1_455 A
N178   C179    1.368   1_565 A
C179   H186    1.082   .     S
C179   N178    1.368   1_545 A
C179   C180    1.406   1_455 A
C180   N181    1.362   .     A
C180   C179    1.406   1_655 A
N181   C176    1.356   1_545 A
N182   C183    1.359   .     A
C183   C184    1.405   .     A
C183   H187    1.083   .     S
C184   N185    1.370   1_655 A
C184   C10     1.484   1_655 S
N185   C184    1.370   1_455 A
C188   N193    1.374   .     A
C188   N194    1.364   .     A
C188   C189    1.404   1_655 A
C189   N190    1.350   .     A
C189   N197    1.355   .     A
C189   C188    1.404   1_455 A
N190   C191    1.353   .     A
C191   C192    1.408   .     A
C191   H198    1.077   .     S
C192   N193    1.372   1_455 A
N193   C192    1.372   1_655 A
N194   C195    1.371   .     A
C195   C196    1.411   .     A
C195   H199    1.083   .     S
C196   N197    1.360   1_655 A
N197   C196    1.360   1_455 A
C200   N205    1.356   .     A
C200   N206    1.355   .     A
C200   C201    1.406   1_556 A
C201   N202    1.360   .     A
C201   N209    1.365   .     A
C201   C200    1.406   1_554 A
N202   C203    1.365   .     A
C203   C204    1.410   .     A
C203   H210    1.083   .     S
C204   N205    1.360   1_554 A
N205   C204    1.360   1_556 A
N206   C207    1.356   .     A
C207   C208    1.403   .     A
C207   H211    1.083   .     S
C208   N209    1.365   1_556 A
C208   C9      1.469   1_655 S
N209   C208    1.365   1_554 A
C212   C213    1.404   .     A
C212   N217    1.353   .     A
C212   N218    1.356   .     A
C213   N214    1.358   .     A
C213   N221    1.354   .     A
N214   C215    1.359   .     A
C215   C216    1.401   .     A
C215   H222    1.082   .     S
C216   N217    1.358   .     A
N218   C219    1.358   .     A
C219   C220    1.406   .     A
C219   H223    1.083   .     S
C220   N221    1.361   .     A
