data_lcy+N205+E220
_audit_creation_date              2025-01-21
_audit_creation_method            'Materials Studio'
_symmetry_space_group_name_H-M    'P1'
_symmetry_Int_Tables_number       1
_symmetry_cell_setting            triclinic
loop_
_symmetry_equiv_pos_as_xyz
  x,y,z
_cell_length_a                    19.4713
_cell_length_b                    20.0885
_cell_length_c                    20.1619
_cell_angle_alpha                 118.2613
_cell_angle_beta                  93.4292
_cell_angle_gamma                 93.8412
loop_
_atom_site_label
_atom_site_type_symbol
_atom_site_fract_x
_atom_site_fract_y
_atom_site_fract_z
_atom_site_U_iso_or_equiv
_atom_site_adp_type
_atom_site_occupancy
Y0     Y     0.16372   0.53876   0.88055   0.00000  Uiso   1.00
Y1     Y     0.05441   0.67687   0.81986   0.00000  Uiso   1.00
C2     C     0.95087   0.70807   0.90972   0.00000  Uiso   1.00
C3     C     0.02369   0.51537   0.79957   0.00000  Uiso   1.00
C4     C     0.17804   0.47023   0.96555   0.00000  Uiso   1.00
C5     C     0.23096   0.49806   0.75500   0.00000  Uiso   1.00
C6     C     0.19557   0.70011   0.91987   0.00000  Uiso   1.00
C7     C     1.04191   0.76303   0.75066   0.00000  Uiso   1.00
O8     O     0.01381   0.72907   0.93579   0.00000  Uiso   1.00
O9     O     0.94292   0.67075   0.83878   0.00000  Uiso   1.00
O10    O     0.05163   0.54923   0.86680   0.00000  Uiso   1.00
O11    O     0.02894   0.54823   0.75898   0.00000  Uiso   1.00
O12    O     0.21514   0.52974   0.97794   0.00000  Uiso   1.00
O13    O     0.13530   0.44426   0.90730   0.00000  Uiso   1.00
O14    O     0.16981   0.47363   0.75474   0.00000  Uiso   1.00
O15    O     0.25872   0.54328   0.82119   0.00000  Uiso   1.00
O16    O     0.16862   0.70713   0.86471   0.00000  Uiso   1.00
O17    O     0.16068   0.66328   0.94483   0.00000  Uiso   1.00
O18    O     1.02793   0.69155   0.71640   0.00000  Uiso   1.00
O19    O     0.06529   0.78825   0.81864   0.00000  Uiso   1.00
Y20    Y     0.54742   0.85922   0.21091   0.00000  Uiso   1.00
Y21    Y     0.61328   0.92908   0.08526   0.00000  Uiso   1.00
C22    C     0.71505   0.83719   0.04950   0.00000  Uiso   1.00
C23    C     0.67576   0.96908   0.24277   0.00000  Uiso   1.00
C24    C     0.53640   0.76673   0.27430   0.00000  Uiso   1.00
C25    C     0.48985   0.99124   0.26339   0.00000  Uiso   1.00
C26    C     0.47763   0.82007   0.05670   0.00000  Uiso   1.00
C27    C     0.61788   0.99002  -0.00859   0.00000  Uiso   1.00
O28    O     0.65176   0.81248   0.03880   0.00000  Uiso   1.00
O29    O     0.72482   0.90840   0.08162   0.00000  Uiso   1.00
O30    O     0.65953   0.89861   0.21859   0.00000  Uiso   1.00
O31    O     0.64592   1.00218   0.21040   0.00000  Uiso   1.00
O32    O     0.49508   0.81493   0.28184   0.00000  Uiso   1.00
O33    O     0.58374   0.76724   0.23482   0.00000  Uiso   1.00
O34    O     0.54564   0.98379   0.29308   0.00000  Uiso   1.00
O35    O     0.45964   0.92874   0.21205   0.00000  Uiso   1.00
O36    O     0.49989   0.88513   0.06557   0.00000  Uiso   1.00
O37    O     0.51287   0.78925   0.08733   0.00000  Uiso   1.00
O38    O     0.63431   1.02813   0.06203   0.00000  Uiso   1.00
O39    O     0.59606   0.92210   0.97076   0.00000  Uiso   1.00
Y40    Y     0.95701   0.16804   0.54816   0.00000  Uiso   1.00
Y41    Y     0.82450   0.06695   0.68695   0.00000  Uiso   1.00
C42    C     0.92258   0.97464   0.68038   0.00000  Uiso   1.00
C43    C     0.82839   0.05651   0.52517   0.00000  Uiso   1.00
C44    C     0.09374   0.17579   0.53853   0.00000  Uiso   1.00
C45    C     0.87322   0.25365   0.51932   0.00000  Uiso   1.00
C46    C     0.90776   0.20923   0.70476   0.00000  Uiso   1.00
C47    C     0.72756   1.06063   0.77546   0.00000  Uiso   1.00
O48    O     0.92709   0.04441   0.72761   0.00000  Uiso   1.00
O49    O     0.86928   0.95422   0.63393   0.00000  Uiso   1.00
O50    O     0.89354   0.06801   0.54348   0.00000  Uiso   1.00
O51    O     0.78792   0.05299   0.57135   0.00000  Uiso   1.00
O52    O     0.06545   0.22015   0.59560   0.00000  Uiso   1.00
O53    O     1.05071   0.12644   0.48501   0.00000  Uiso   1.00
O54    O     0.88453   0.18790   0.46973   0.00000  Uiso   1.00
O55    O     0.91087   0.27757   0.58111   0.00000  Uiso   1.00
O56    O     0.86255   0.19127   0.73748   0.00000  Uiso   1.00
O57    O     0.93027   0.15633   0.64832   0.00000  Uiso   1.00
O58    O     0.72434   1.01591   0.70525   0.00000  Uiso   1.00
O59    O     0.77896   0.11003   0.79807   0.00000  Uiso   1.00
Y60    Y     0.46511   0.34051   0.48353   0.00000  Uiso   1.00
Y61    Y     0.34785   0.41239   0.30861   0.00000  Uiso   1.00
C62    C     0.44244   0.52811   0.33268   0.00000  Uiso   1.00
C63    C     0.35067   0.43802   0.47841   0.00000  Uiso   1.00
C64    C     0.60198   0.33434   0.49782   0.00000  Uiso   1.00
C65    C     0.37212   0.25957   0.51715   0.00000  Uiso   1.00
C66    C     0.41260   0.28151   0.31295   0.00000  Uiso   1.00
C67    C     0.25727   0.39985   0.19607   0.00000  Uiso   1.00
O68    O     0.45164   0.45910   0.29282   0.00000  Uiso   1.00
O69    O     0.38840   0.53607   0.36558   0.00000  Uiso   1.00
O70    O     0.41575   0.43515   0.47497   0.00000  Uiso   1.00
O71    O     0.31193   0.43082   0.42118   0.00000  Uiso   1.00
O72    O     0.56144   0.28810   0.44065   0.00000  Uiso   1.00
O73    O     0.57138   0.38468   0.54937   0.00000  Uiso   1.00
O74    O     0.39701   0.32708   0.56358   0.00000  Uiso   1.00
O75    O     0.40020   0.23223   0.45608   0.00000  Uiso   1.00
O76    O     0.37503   0.29239   0.26674   0.00000  Uiso   1.00
O77    O     0.43310   0.33898   0.37565   0.00000  Uiso   1.00
O78    O     0.24909   0.43901   0.26524   0.00000  Uiso   1.00
O79    O     0.30846   0.36255   0.18580   0.00000  Uiso   1.00
C80    C     0.40754   0.78392   0.01707   0.00000  Uiso   1.00
C81    C     0.36902   0.73116   0.03222   0.00000  Uiso   1.00
C82    C     0.30045   0.70500   0.00024   0.00000  Uiso   1.00
C83    C     0.26892   0.72830   0.95127   0.00000  Uiso   1.00
C84    C     0.30754   0.77904   0.93471   0.00000  Uiso   1.00
C85    C     0.37576   0.80717   0.96788   0.00000  Uiso   1.00
O86    O     0.36857   0.72147   0.14445   0.00000  Uiso   1.00
O87    O     0.43974   0.65419   0.05932   0.00000  Uiso   1.00
N88    N     0.39708   0.70601   0.08287   0.00000  Uiso   1.00
H89    H     0.28444   0.79851   0.89768   0.00000  Uiso   1.00
H90    H     0.40347   0.84808   0.95576   0.00000  Uiso   1.00
H91    H     0.27174   0.66616   0.01426   0.00000  Uiso   1.00
C92    C     0.43198   0.20577   0.29491   0.00000  Uiso   1.00
C93    C     0.50132   0.18872   0.28467   0.00000  Uiso   1.00
C94    C     0.51907   0.12052   0.28104   0.00000  Uiso   1.00
C95    C     0.46872   0.06584   0.27851   0.00000  Uiso   1.00
C96    C     0.39929   0.08018   0.28113   0.00000  Uiso   1.00
C97    C     0.38123   0.15029   0.29061   0.00000  Uiso   1.00
O98    O     0.61067   0.21050   0.24714   0.00000  Uiso   1.00
O99    O     0.54333   0.30488   0.28610   0.00000  Uiso   1.00
N100   N     0.55364   0.23700   0.27448   0.00000  Uiso   1.00
H101   H     0.35944   0.03814   0.27783   0.00000  Uiso   1.00
H102   H     0.32783   0.16223   0.29664   0.00000  Uiso   1.00
H103   H     0.57246   0.10879   0.27734   0.00000  Uiso   1.00
C104   C     0.81386   0.29232   0.51086   0.00000  Uiso   1.00
C105   C     0.77672   0.26818   0.43952   0.00000  Uiso   1.00
C106   C     0.70798   0.28461   0.43628   0.00000  Uiso   1.00
C107   C     0.67692   0.32752   0.50270   0.00000  Uiso   1.00
C108   C     0.71685   0.35892   0.57276   0.00000  Uiso   1.00
C109   C     0.78467   0.34127   0.57677   0.00000  Uiso   1.00
O110   O     0.76983   0.17943   0.30832   0.00000  Uiso   1.00
O111   O     0.87241   0.24556   0.36694   0.00000  Uiso   1.00
N112   N     0.80778   0.22709   0.37037   0.00000  Uiso   1.00
H113   H     0.69426   0.39274   0.62474   0.00000  Uiso   1.00
H114   H     0.81218   0.36080   0.63201   0.00000  Uiso   1.00
H115   H     0.67839   0.26320   0.38175   0.00000  Uiso   1.00
C116   C     0.68186   1.05289   0.82831   0.00000  Uiso   1.00
C117   C     0.63149   0.98979   0.80516   0.00000  Uiso   1.00
C118   C     0.60690   0.97244   0.85998   0.00000  Uiso   1.00
C119   C     0.62971   1.01839   0.93721   0.00000  Uiso   1.00
C120   C     0.67237   0.08594   0.96017   0.00000  Uiso   1.00
C121   C     0.69833   0.10286   0.90628   0.00000  Uiso   1.00
O122   O     0.59358   0.86879   0.70027   0.00000  Uiso   1.00
O123   O     0.58540   0.97214   0.68585   0.00000  Uiso   1.00
N124   N     0.60647   0.94182   0.72692   0.00000  Uiso   1.00
H125   H     0.69012   0.12270   1.01947   0.00000  Uiso   1.00
H126   H     0.73569   0.15244   0.92586   0.00000  Uiso   1.00
H127   H     0.57155   0.92160   0.84206   0.00000  Uiso   1.00
C128   C     0.79887   1.04711   0.45139   0.00000  Uiso   1.00
C129   C     0.82444   0.99690   0.38257   0.00000  Uiso   1.00
C130   C     0.78693   0.97936   0.31354   0.00000  Uiso   1.00
C131   C     0.72486   1.01000   0.31148   0.00000  Uiso   1.00
C132   C     0.70320   1.06478   0.37920   0.00000  Uiso   1.00
C133   C     0.73948   0.08243   0.44865   0.00000  Uiso   1.00
O134   O     0.89211   0.92708   0.42476   0.00000  Uiso   1.00
O135   O     0.92252   0.93909   0.32536   0.00000  Uiso   1.00
N136   N     0.88391   0.95739   0.38053   0.00000  Uiso   1.00
H137   H     0.65525   0.08906   0.37890   0.00000  Uiso   1.00
H138   H     0.71938   0.12130   0.50055   0.00000  Uiso   1.00
H139   H     0.80303   0.93629   0.26108   0.00000  Uiso   1.00
C140   C     0.32017   0.44779   0.54794   0.00000  Uiso   1.00
C141   C     0.25170   0.41823   0.54633   0.00000  Uiso   1.00
C142   C     0.22478   0.43237   0.61419   0.00000  Uiso   1.00
C143   C     0.26384   0.47765   0.68450   0.00000  Uiso   1.00
C144   C     0.33199   0.50602   0.68611   0.00000  Uiso   1.00
C145   C     0.36003   0.49057   0.61853   0.00000  Uiso   1.00
O146   O     0.18863   0.30331   0.45516   0.00000  Uiso   1.00
O147   O     0.17420   0.40928   0.44751   0.00000  Uiso   1.00
N148   N     0.20838   0.37429   0.47679   0.00000  Uiso   1.00
H149   H     0.36317   0.54122   0.73960   0.00000  Uiso   1.00
H150   H     0.41254   0.51417   0.62160   0.00000  Uiso   1.00
H151   H     0.17202   0.40975   0.61177   0.00000  Uiso   1.00
C152   C     0.18139   0.43914   0.01809   0.00000  Uiso   1.00
C153   C     0.20669   0.36864  -0.00067   0.00000  Uiso   1.00
C154   C     0.22596   0.35286   0.05846   0.00000  Uiso   1.00
C155   C     0.21828   0.40476   0.13410   0.00000  Uiso   1.00
C156   C     0.18601   0.47010   0.15024   0.00000  Uiso   1.00
C157   C     0.16878   0.48768   0.09281   0.00000  Uiso   1.00
O158   O     0.26493   0.26895  -0.08961   0.00000  Uiso   1.00
O159   O     0.17746   0.30805   0.86556   0.00000  Uiso   1.00
N160   N     0.21837   0.31585  -0.07707   0.00000  Uiso   1.00
H161   H     0.18017   0.51121   0.20814   0.00000  Uiso   1.00
H162   H     0.14943   0.54183   0.10756   0.00000  Uiso   1.00
H163   H     0.25034   0.30186   0.04593   0.00000  Uiso   1.00
C164   C     0.30952   0.22123   0.52792   0.00000  Uiso   1.00
C165   C     0.28326   0.24983   0.59915   0.00000  Uiso   1.00
C166   C     0.21276   0.23231   0.60190   0.00000  Uiso   1.00
C167   C     0.16923   0.18387   0.53551   0.00000  Uiso   1.00
C168   C     0.19789   0.14800   0.46666   0.00000  Uiso   1.00
C169   C     0.26748   0.16648   0.46290   0.00000  Uiso   1.00
O170   O     0.30121   0.34321   0.72924   0.00000  Uiso   1.00
O171   O     0.39139   0.28328   0.67414   0.00000  Uiso   1.00
N172   N     0.32728   0.29623   0.66847   0.00000  Uiso   1.00
H173   H     0.16547   0.10981   0.41493   0.00000  Uiso   1.00
H174   H     0.28674   0.14250   0.40784   0.00000  Uiso   1.00
H175   H     0.19154   0.25727   0.65594   0.00000  Uiso   1.00
C176   C     0.96912   0.92047   0.68408   0.00000  Uiso   1.00
C177   C     1.02577   0.94445   0.74073   0.00000  Uiso   1.00
C178   C     1.05237   0.89100   0.75886   0.00000  Uiso   1.00
C179   C     1.02624   0.81387   0.71897   0.00000  Uiso   1.00
C180   C    -0.02265   0.78913   0.65604   0.00000  Uiso   1.00
C181   C    -0.05147   0.84201   0.63926   0.00000  Uiso   1.00
O182   O     1.08272   1.05142   0.85078   0.00000  Uiso   1.00
O183   O     1.06855   0.05911   0.74359   0.00000  Uiso   1.00
N184   N     1.05607   1.02221   0.78082   0.00000  Uiso   1.00
H185   H    -0.04276   0.72973   0.62364   0.00000  Uiso   1.00
H186   H    -0.09378   0.82176   0.59463   0.00000  Uiso   1.00
H187   H     1.09240   0.91001   0.80567   0.00000  Uiso   1.00
C188   C    -0.00981   0.43706   0.77028   0.00000  Uiso   1.00
C189   C     0.91805   0.42124   0.77056   0.00000  Uiso   1.00
C190   C     0.89021   0.34619   0.74870   0.00000  Uiso   1.00
C191   C     0.93383   0.28850   0.73025   0.00000  Uiso   1.00
C192   C     0.00504   0.30624   0.73648   0.00000  Uiso   1.00
C193   C     0.03274   0.37902   0.75529   0.00000  Uiso   1.00
O194   O     0.80910   0.46822   0.77286   0.00000  Uiso   1.00
O195   O     0.89413   0.54248   0.86278   0.00000  Uiso   1.00
N196   N     0.87394   0.48116   0.79935   0.00000  Uiso   1.00
H197   H     0.03969   0.26358   0.72813   0.00000  Uiso   1.00
H198   H     0.08802   0.38968   0.76119   0.00000  Uiso   1.00
H199   H     0.83512   0.33313   0.74744   0.00000  Uiso   1.00
C200   C     0.77254   0.79038   1.02210   0.00000  Uiso   1.00
C201   C     0.76531   0.72337   0.95139   0.00000  Uiso   1.00
C202   C     0.82487   0.69302   0.91862   0.00000  Uiso   1.00
C203   C     0.89125   0.72826   0.95447   0.00000  Uiso   1.00
C204   C     0.89796   0.79000   1.02764   0.00000  Uiso   1.00
C205   C     0.83901   0.82103   0.06101   0.00000  Uiso   1.00
O206   O     0.66153   0.73073   0.88869   0.00000  Uiso   1.00
O207   O     0.68493   0.61677   0.87281   0.00000  Uiso   1.00
N208   N     0.69931   0.69031   0.90789   0.00000  Uiso   1.00
H209   H     0.94856   0.81795   0.05652   0.00000  Uiso   1.00
H210   H     0.84558   0.87244   0.11528   0.00000  Uiso   1.00
H211   H     0.81897   0.64544   0.86175   0.00000  Uiso   1.00
C212   C     0.52749   0.71200   0.30357   0.00000  Uiso   1.00
C213   C     0.48894   0.72686   0.36541   0.00000  Uiso   1.00
C214   C     0.46684   0.66685   0.37898   0.00000  Uiso   1.00
C215   C     0.48329   0.59275   0.33272   0.00000  Uiso   1.00
C216   C     0.52806   0.58043   0.27703   0.00000  Uiso   1.00
C217   C     0.55005   0.63967   0.26266   0.00000  Uiso   1.00
O218   O     0.41252   0.81125   0.44314   0.00000  Uiso   1.00
O219   O     0.51737   0.86047   0.43720   0.00000  Uiso   1.00
N220   N     0.47129   0.80193   0.41413   0.00000  Uiso   1.00
H221   H     0.54153   0.52385   0.24055   0.00000  Uiso   1.00
H222   H     0.58033   0.62733   0.21558   0.00000  Uiso   1.00
H223   H     0.43417   0.67750   0.42386   0.00000  Uiso   1.00
loop_
_geom_bond_atom_site_label_1
_geom_bond_atom_site_label_2
_geom_bond_distance
_geom_bond_site_symmetry_2
_ccdc_geom_bond_type
Y0     O10     2.220   .     S
Y0     O12     2.240   .     S
Y0     O13     2.251   .     S
Y0     O14     2.253   .     S
Y0     O15     2.282   .     S
Y0     O17     2.213   .     S
Y1     O8      2.280   .     S
Y1     O11     2.276   .     S
Y1     O16     2.278   .     S
Y1     O19     2.245   .     S
Y1     O9      2.232   1_455 S
Y1     O18     2.276   1_455 S
C2     O9      1.255   .     A
C2     C203    1.473   .     S
C2     O8      1.265   1_655 A
C3     O10     1.259   .     A
C3     O11     1.276   .     A
C3     C188    1.478   .     S
C4     O12     1.262   .     A
C4     O13     1.260   .     A
C4     C152    1.463   1_556 S
C5     O14     1.256   .     A
C5     O15     1.264   .     A
C5     C143    1.480   .     S
C6     O16     1.273   .     A
C6     O17     1.260   .     A
C6     C83     1.485   .     S
C7     O18     1.265   .     A
C7     C179    1.477   .     S
C7     O19     1.257   1_655 A
O8     C2      1.265   1_455 A
O9     Y1      2.232   1_655 S
O18    Y1      2.276   1_655 S
O19    C7      1.257   1_455 A
Y20    O30     2.242   .     S
Y20    O32     2.266   .     S
Y20    O33     2.264   .     S
Y20    O34     2.258   .     S
Y20    O35     2.273   .     S
Y20    O37     2.234   .     S
Y21    O28     2.273   .     S
Y21    O29     2.237   .     S
Y21    O31     2.258   .     S
Y21    O36     2.261   .     S
Y21    O38     2.268   .     S
Y21    O39     2.249   1_554 S
C22    O28     1.264   .     A
C22    O29     1.254   .     A
C22    C200    1.471   1_554 S
C23    O30     1.269   .     A
C23    O31     1.274   .     A
C23    C131    1.472   .     S
C24    O32     1.260   .     A
C24    O33     1.256   .     A
C24    C212    1.479   .     S
C25    O34     1.261   .     A
C25    O35     1.261   .     A
C25    C95     1.474   1_565 S
C26    O36     1.273   .     A
C26    O37     1.266   .     A
C26    C80     1.489   .     S
C27    O38     1.263   .     A
C27    O39     1.257   1_554 A
C27    C119    1.474   1_554 S
O39    Y21     2.249   1_556 S
O39    C27     1.257   1_556 A
Y40    O50     2.247   .     S
Y40    O53     2.263   .     S
Y40    O54     2.249   .     S
Y40    O55     2.245   .     S
Y40    O57     2.228   .     S
Y40    O52     2.232   1_655 S
Y41    O48     2.268   .     S
Y41    O51     2.275   .     S
Y41    O56     2.253   .     S
Y41    O59     2.249   .     S
Y41    O49     2.262   1_545 S
Y41    O58     2.273   1_545 S
C42    O49     1.259   .     A
C42    C176    1.487   .     S
C42    O48     1.260   1_565 A
C43    O50     1.274   .     A
C43    O51     1.279   .     A
C43    C128    1.482   1_545 S
C44    O52     1.262   .     A
C44    C167    1.476   .     S
C44    O53     1.272   1_455 A
C45    O54     1.268   .     A
C45    O55     1.264   .     A
C45    C104    1.480   .     S
C46    O56     1.262   .     A
C46    O57     1.262   .     A
C46    C191    1.464   .     S
C47    O58     1.262   .     A
C47    C116    1.484   .     S
C47    O59     1.256   1_565 A
O48    C42     1.260   1_545 A
O49    Y41     2.262   1_565 S
O52    Y40     2.232   1_455 S
O53    C44     1.272   1_655 A
O58    Y41     2.273   1_565 S
O59    C47     1.256   1_545 A
Y60    O70     2.259   .     S
Y60    O72     2.229   .     S
Y60    O73     2.267   .     S
Y60    O74     2.249   .     S
Y60    O75     2.246   .     S
Y60    O77     2.212   .     S
Y61    O68     2.274   .     S
Y61    O69     2.245   .     S
Y61    O71     2.282   .     S
Y61    O76     2.259   .     S
Y61    O78     2.265   .     S
Y61    O79     2.246   .     S
C62    O68     1.263   .     A
C62    O69     1.256   .     A
C62    C215    1.476   .     S
C63    O70     1.277   .     A
C63    O71     1.282   .     A
C63    C140    1.487   .     S
C64    O72     1.262   .     A
C64    O73     1.272   .     A
C64    C107    1.476   .     S
C65    O74     1.267   .     A
C65    O75     1.264   .     A
C65    C164    1.480   .     S
C66    O76     1.258   .     A
C66    O77     1.259   .     A
C66    C92     1.469   .     S
C67    O78     1.262   .     A
C67    O79     1.255   .     A
C67    C155    1.470   .     S
C80    C81     1.417   .     A
C80    C85     1.410   1_554 A
C81    C82     1.399   .     A
C81    N88     1.434   .     S
C82    H91     1.082   .     S
C82    C83     1.405   1_554 A
C83    C84     1.402   .     A
C83    C82     1.405   1_556 A
C84    C85     1.402   .     A
C84    H89     1.083   .     S
C85    H90     1.083   .     S
C85    C80     1.410   1_556 A
O86    N88     1.299   .     A
O87    N88     1.302   .     A
C92    C93     1.418   .     A
C92    C97     1.406   .     A
C93    C94     1.405   .     A
C93    N100    1.450   .     S
C94    C95     1.402   .     A
C94    H103    1.080   .     S
C95    C96     1.400   .     A
C95    C25     1.474   1_545 S
C96    C97     1.401   .     A
C96    H101    1.083   .     S
C97    H102    1.084   .     S
O98    N100    1.302   .     A
O99    N100    1.302   .     A
C104   C105    1.412   .     A
C104   C109    1.408   .     A
C105   C106    1.405   .     A
C105   N112    1.438   .     S
C106   C107    1.406   .     A
C106   H115    1.081   .     S
C107   C108    1.399   .     A
C108   C109    1.398   .     A
C108   H113    1.084   .     S
C109   H114    1.081   .     S
O110   N112    1.299   .     A
O111   N112    1.303   .     A
C116   C117    1.416   .     A
C116   C121    1.409   1_565 A
C117   C118    1.407   .     A
C117   N124    1.435   .     S
C118   C119    1.405   .     A
C118   H127    1.083   .     S
C119   C120    1.398   1_565 A
C119   C27     1.474   1_556 S
C120   C121    1.394   .     A
C120   H125    1.084   .     S
C120   C119    1.398   1_545 A
C121   H126    1.083   .     S
C121   C116    1.409   1_545 A
O122   N124    1.301   .     A
O123   N124    1.302   .     A
C128   C129    1.420   .     A
C128   C133    1.408   1_565 A
C128   C43     1.482   1_565 S
C129   C130    1.405   .     A
C129   N136    1.439   .     S
C130   C131    1.399   .     A
C130   H139    1.084   .     S
C131   C132    1.401   .     A
C132   C133    1.401   1_565 A
C132   H137    1.083   1_565 S
C133   H138    1.084   .     S
C133   C128    1.408   1_545 A
C133   C132    1.401   1_545 A
O134   N136    1.304   .     A
O135   N136    1.299   .     A
H137   C132    1.083   1_545 S
C140   C141    1.415   .     A
C140   C145    1.410   .     A
C141   C142    1.402   .     A
C141   N148    1.429   .     S
C142   C143    1.405   .     A
C142   H151    1.084   .     S
C143   C144    1.401   .     A
C144   C145    1.401   .     A
C144   H149    1.083   .     S
C145   H150    1.083   .     S
O146   N148    1.300   .     A
O147   N148    1.301   .     A
C152   C153    1.414   .     A
C152   C157    1.402   .     A
C152   C4      1.463   1_554 S
C153   C154    1.408   .     A
C153   N160    1.441   .     S
C154   C155    1.406   .     A
C154   H163    1.083   .     S
C155   C156    1.398   .     A
C156   C157    1.391   .     A
C156   H161    1.083   .     S
C157   H162    1.084   .     S
O158   N160    1.300   .     A
O159   N160    1.303   1_556 A
N160   O159    1.303   1_554 A
C164   C165    1.414   .     A
C164   C169    1.408   .     A
C165   C166    1.405   .     A
C165   N172    1.440   .     S
C166   C167    1.406   .     A
C166   H175    1.083   .     S
C167   C168    1.399   .     A
C168   C169    1.397   .     A
C168   H173    1.083   .     S
C169   H174    1.083   .     S
O170   N172    1.301   .     A
O171   N172    1.301   .     A
C176   C177    1.418   .     A
C176   C181    1.409   1_655 A
C177   C178    1.407   .     A
C177   N184    1.437   .     S
C178   C179    1.404   .     A
C178   H187    1.084   .     S
C179   C180    1.399   1_655 A
C180   C181    1.398   .     A
C180   H185    1.083   .     S
C180   C179    1.399   1_455 A
C181   H186    1.083   .     S
C181   C176    1.409   1_455 A
O182   N184    1.300   .     A
O183   N184    1.303   1_545 A
N184   O183    1.303   1_565 A
C188   C193    1.401   .     A
C188   C189    1.420   1_455 A
C189   C190    1.412   .     A
C189   N196    1.435   .     S
C189   C188    1.420   1_655 A
C190   C191    1.401   .     A
C190   H199    1.083   .     S
C191   C192    1.391   1_655 A
C192   C193    1.385   .     A
C192   H197    1.083   .     S
C192   C191    1.391   1_455 A
C193   H198    1.072   .     S
O194   N196    1.300   .     A
O195   N196    1.300   .     A
C200   C201    1.413   .     A
C200   C205    1.409   1_556 A
C200   C22     1.471   1_556 S
C201   C202    1.399   .     A
C201   N208    1.436   .     S
C202   C203    1.405   .     A
C202   H211    1.083   .     S
C203   C204    1.398   .     A
C204   C205    1.396   1_556 A
C204   H209    1.083   1_556 S
C205   H210    1.084   .     S
C205   C200    1.409   1_554 A
C205   C204    1.396   1_554 A
O206   N208    1.301   .     A
O207   N208    1.301   .     A
H209   C204    1.083   1_554 S
C212   C213    1.413   .     A
C212   C217    1.407   .     A
C213   C214    1.404   .     A
C213   N220    1.437   .     S
C214   C215    1.405   .     A
C214   H223    1.083   .     S
C215   C216    1.402   .     A
C216   C217    1.399   .     A
C216   H221    1.083   .     S
C217   H222    1.083   .     S
O218   N220    1.301   .     A
O219   N220    1.302   .     A
