data_lcy+N505+E15
_audit_creation_date              2025-01-21
_audit_creation_method            'Materials Studio'
_symmetry_space_group_name_H-M    'P1'
_symmetry_Int_Tables_number       1
_symmetry_cell_setting            triclinic
loop_
_symmetry_equiv_pos_as_xyz
  x,y,z
_cell_length_a                    17.8923
_cell_length_b                    17.6348
_cell_length_c                    16.5869
_cell_angle_alpha                 101.2670
_cell_angle_beta                  90.4240
_cell_angle_gamma                 101.9309
loop_
_atom_site_label
_atom_site_type_symbol
_atom_site_fract_x
_atom_site_fract_y
_atom_site_fract_z
_atom_site_U_iso_or_equiv
_atom_site_adp_type
_atom_site_occupancy
Yb0    Yb    0.17690   0.62829   0.73418   0.00000  Uiso   1.00
Yb1    Yb    0.20598   0.75088   0.93498   0.00000  Uiso   1.00
C2     C     0.12740   0.83920   0.00759   0.00000  Uiso   1.00
O3     O     0.14754   0.50313   0.73943   0.00000  Uiso   1.00
O4     O     0.05953   0.56111   0.71362   0.00000  Uiso   1.00
O5     O     0.17590   0.74240   0.71270   0.00000  Uiso   1.00
O6     O     0.12619   0.73982   0.83248   0.00000  Uiso   1.00
O7     O     0.11779   0.59001   0.61078   0.00000  Uiso   1.00
O8     O     0.23420   0.58605   0.62420   0.00000  Uiso   1.00
O9     O     0.31657   0.75581   0.88639   0.00000  Uiso   1.00
O10    O     0.30089   0.77017   0.01893   0.00000  Uiso   1.00
C11    C     0.07628   0.49675   0.72428   0.00000  Uiso   1.00
O12    O     0.20164   0.54532   0.80794   0.00000  Uiso   1.00
O13    O     0.19349   0.62617   0.93113   0.00000  Uiso   1.00
O14    O     0.18779   0.86791  -0.02858   0.00000  Uiso   1.00
C15    C     0.14641   0.77739   0.77490   0.00000  Uiso   1.00
O16    O     1.11670   0.76598   1.01151   0.00000  Uiso   1.00
C17    C     0.17455   0.56833   0.57755   0.00000  Uiso   1.00
C18    C     0.34667   0.76308   0.95927   0.00000  Uiso   1.00
C19    C     0.19659   0.55892   0.88751   0.00000  Uiso   1.00
Yb20   Yb    0.74894   0.90390   0.15472   0.00000  Uiso   1.00
Yb21   Yb    0.51504   0.85715   0.24829   0.00000  Uiso   1.00
C22    C     0.42687  -0.04989   0.25454   0.00000  Uiso   1.00
O23    O     0.68188   0.98043   0.12851   0.00000  Uiso   1.00
O24    O     0.79637   1.02541   0.18985   0.00000  Uiso   1.00
O25    O     0.71054   0.89927   0.28227   0.00000  Uiso   1.00
O26    O     0.60432   0.94706   0.31613   0.00000  Uiso   1.00
O27    O     0.81930   0.91077   0.05341   0.00000  Uiso   1.00
O28    O     0.85225   0.86298   0.15707   0.00000  Uiso   1.00
O29    O     0.53197   0.76262   0.30099   0.00000  Uiso   1.00
O30    O     0.44620   0.74147   0.20059   0.00000  Uiso   1.00
C31    C     0.74203   1.03597   0.14437   0.00000  Uiso   1.00
O32    O     0.67489   0.79648   0.08049   0.00000  Uiso   1.00
O33    O     0.60131   0.83640   0.16962   0.00000  Uiso   1.00
O34    O     0.42265   0.90267   0.30580   0.00000  Uiso   1.00
C35    C     0.66445   0.92458   0.33562   0.00000  Uiso   1.00
O36    O     0.47660  -0.05555   0.20002   0.00000  Uiso   1.00
C37    C     0.87123   0.88771   0.09016   0.00000  Uiso   1.00
C38    C     0.48591   0.71222   0.24749   0.00000  Uiso   1.00
C39    C     0.60663   0.79729   0.09914   0.00000  Uiso   1.00
Yb40   Yb    0.91200   0.06435   0.76269   0.00000  Uiso   1.00
Yb41   Yb    0.80638   0.17285   0.59431   0.00000  Uiso   1.00
C42    C     0.70060   0.22888   0.55876   0.00000  Uiso   1.00
O43    O     0.85646   0.13809   0.84548   0.00000  Uiso   1.00
O44    O     0.84413   1.01443   0.85325   0.00000  Uiso   1.00
O45    O     0.82025   0.01294   0.66245   0.00000  Uiso   1.00
O46    O     0.73436   0.08148   0.63739   0.00000  Uiso   1.00
O47    O     1.01227   1.06457   0.83305   0.00000  Uiso   1.00
O48    O    -0.02396   0.98037   0.71768   0.00000  Uiso   1.00
O49    O     0.89375   0.12120   0.53017   0.00000  Uiso   1.00
O50    O     0.89150   0.24678   0.54426   0.00000  Uiso   1.00
C51    C     0.83274   1.08375   0.88530   0.00000  Uiso   1.00
O52    O     0.97938   0.16538   0.71767   0.00000  Uiso   1.00
O53    O     0.86639   0.18532   0.70654   0.00000  Uiso   1.00
O54    O     0.72591   0.17913   0.50354   0.00000  Uiso   1.00
C55    C     0.75947   0.01903   0.62432   0.00000  Uiso   1.00
O56    O     0.73200   0.24513   0.63173   0.00000  Uiso   1.00
C57    C     0.02306   1.00436   0.78016   0.00000  Uiso   1.00
C58    C     0.92852   0.19128   0.52304   0.00000  Uiso   1.00
C59    C     0.93658   0.21376   0.71264   0.00000  Uiso   1.00
Yb60   Yb    0.28144   0.33490   0.18208   0.00000  Uiso   1.00
Yb61   Yb    0.33314   0.27700   0.40184   0.00000  Uiso   1.00
C62    C     0.45648   0.28120   0.46434   0.00000  Uiso   1.00
O63    O     0.37772   0.39962   0.25658   0.00000  Uiso   1.00
O64    O     0.38169   0.37715   0.12210   0.00000  Uiso   1.00
O65    O     0.29963   0.21565   0.17951   0.00000  Uiso   1.00
O66    O     0.38010   0.25592   0.28519   0.00000  Uiso   1.00
O67    O     0.24799   0.43327   0.15348   0.00000  Uiso   1.00
O68    O     0.20215   0.31296   0.08214   0.00000  Uiso   1.00
O69    O     0.22271   0.20069   0.39273   0.00000  Uiso   1.00
O70    O     0.27114   0.28210   0.50710   0.00000  Uiso   1.00
C71    C     0.41011   0.41908   0.19265   0.00000  Uiso   1.00
O72    O     0.19634   0.32894   0.27447   0.00000  Uiso   1.00
O73    O     0.28854   0.37246   0.37259   0.00000  Uiso   1.00
O74    O     0.40642   0.21490   0.44747   0.00000  Uiso   1.00
C75    C     0.34276   0.19964   0.23182   0.00000  Uiso   1.00
O76    O     0.43785   0.34348   0.44847   0.00000  Uiso   1.00
C77    C     0.20982   0.38829   0.08952   0.00000  Uiso   1.00
C78    C     0.21282   0.23312   0.46757   0.00000  Uiso   1.00
C79    C     0.22080   0.36787   0.34640   0.00000  Uiso   1.00
N80    N     0.47141   0.72015   0.92379   0.00000  Uiso   1.00
N81    N     0.53825   0.72526   0.96241   0.00000  Uiso   1.00
C82    C     0.53902   0.76777   0.03949   0.00000  Uiso   1.00
C83    C     0.46947   0.79111   0.04872   0.00000  Uiso   1.00
C84    C     0.42827   0.76037   0.97476   0.00000  Uiso   1.00
H85    H     0.45038   0.82696   0.10083   0.00000  Uiso   1.00
H86    H     0.45544   0.68836   0.86378   0.00000  Uiso   1.00
H87    H     0.58247   0.70045   0.93598   0.00000  Uiso   1.00
N88    N     0.30310  -0.00523   0.24869   0.00000  Uiso   1.00
N89    N     0.28120   0.05926   0.23655   0.00000  Uiso   1.00
C90    C     0.34367   0.11734   0.23783   0.00000  Uiso   1.00
C91    C     0.40815   0.08843   0.25121   0.00000  Uiso   1.00
C92    C     0.38005   0.01030   0.25733   0.00000  Uiso   1.00
H93    H     0.46750   0.11943   0.25362   0.00000  Uiso   1.00
H94    H     0.26624  -0.05990   0.24701   0.00000  Uiso   1.00
H95    H     0.22428   0.06337   0.22794   0.00000  Uiso   1.00
N96    N     0.57601   0.35751   0.53844   0.00000  Uiso   1.00
N97    N     0.63943   0.34375   0.56695   0.00000  Uiso   1.00
C98    C     0.63879   0.26623   0.54123   0.00000  Uiso   1.00
C99    C     0.57079   0.22805   0.49833   0.00000  Uiso   1.00
C100   C     0.53242   0.28816   0.49947   0.00000  Uiso   1.00
H101   H     0.55022   0.16547   0.47640   0.00000  Uiso   1.00
H102   H     0.56016   0.41236   0.55173   0.00000  Uiso   1.00
H103   H     0.68239   0.38670   0.60280   0.00000  Uiso   1.00
N104   N     0.82126   0.15087   1.10021   0.00000  Uiso   1.00
N105   N     0.84809   0.16007   1.02788   0.00000  Uiso   1.00
C106   C     0.80499   0.10509   0.96822   0.00000  Uiso   1.00
C107   C     0.74568   1.06181   1.00398   0.00000  Uiso   1.00
C108   C     0.75917   0.09094   1.08850   0.00000  Uiso   1.00
H109   H     0.70715   1.00703   0.97405   0.00000  Uiso   1.00
H110   H     0.85136   0.17742   1.15636   0.00000  Uiso   1.00
H111   H     0.90100   0.19602   1.02018   0.00000  Uiso   1.00
N112   N     0.62495   0.89635   0.47276   0.00000  Uiso   1.00
N113   N     0.65212   0.91791   0.55002   0.00000  Uiso   1.00
C114   C     0.72467   0.95888   0.55227   0.00000  Uiso   1.00
C115   C     0.74417  -0.03682   0.47181   0.00000  Uiso   1.00
C116   C     0.67894   0.92383   0.42352   0.00000  Uiso   1.00
H117   H     0.79426  -0.00078   0.45206   0.00000  Uiso   1.00
H118   H     0.56809   0.86873   0.45504   0.00000  Uiso   1.00
H119   H     0.61879   0.91205   0.60079   0.00000  Uiso   1.00
N120   N     0.10445   0.44856   0.49517   0.00000  Uiso   1.00
N121   N     0.11238   0.39438   0.43059   0.00000  Uiso   1.00
C122   C     0.17834   0.42035   0.39693   0.00000  Uiso   1.00
C123   C     0.21340   0.49438   0.44214   0.00000  Uiso   1.00
C124   C     0.16286   0.51013   0.50183   0.00000  Uiso   1.00
H125   H     0.27107   0.52682   0.43806   0.00000  Uiso   1.00
H126   H     0.06840   0.44064   0.54326   0.00000  Uiso   1.00
H127   H     0.07658   0.33844   0.41341   0.00000  Uiso   1.00
N128   N     0.12464   0.38785  -0.02927   0.00000  Uiso   1.00
N129   N     0.12277   0.43266  -0.08377   0.00000  Uiso   1.00
C130   C     0.18434   0.49289   0.93047   0.00000  Uiso   1.00
C131   C     0.22411   0.48994   0.00074   0.00000  Uiso   1.00
C132   C     0.18475   0.42210   0.02368   0.00000  Uiso   1.00
H133   H     0.27657   0.52941   0.02885   0.00000  Uiso   1.00
H134   H     0.08384   0.33685  -0.02641   0.00000  Uiso   1.00
H135   H     0.07862   0.42393   0.87219   0.00000  Uiso   1.00
N136   N     0.04706   0.28729   0.55037   0.00000  Uiso   1.00
N137   N     0.12139   0.29477   0.54881   0.00000  Uiso   1.00
C138   C     0.13688   0.22901   0.50286   0.00000  Uiso   1.00
C139   C     0.06711   0.17417   0.47895   0.00000  Uiso   1.00
C140   C     0.01147   0.21499   0.51236   0.00000  Uiso   1.00
H141   H     0.05808   0.11557   0.44063   0.00000  Uiso   1.00
H142   H     0.01972   0.33224   0.57427   0.00000  Uiso   1.00
H143   H     0.16030   0.34709   0.57408   0.00000  Uiso   1.00
N144   N     0.18641   0.91778   0.75890   0.00000  Uiso   1.00
N145   N     0.15452   0.97985   0.76432   0.00000  Uiso   1.00
C146   C     0.08308   0.96125   0.79002   0.00000  Uiso   1.00
C147   C     0.06876   0.88392   0.80122   0.00000  Uiso   1.00
C148   C     0.13550   0.85856   0.78084   0.00000  Uiso   1.00
H149   H     1.01491   0.84879   0.81457   0.00000  Uiso   1.00
H150   H     0.24152   0.91565   0.73882   0.00000  Uiso   1.00
H151   H     0.17979   1.03216   0.74576   0.00000  Uiso   1.00
N152   N     0.90868   0.34486   0.71133   0.00000  Uiso   1.00
N153   N     0.94416   0.41868   0.71432   0.00000  Uiso   1.00
C154   C     0.01963   0.42320   0.72213   0.00000  Uiso   1.00
C155   C     0.03318   0.34846   0.72583   0.00000  Uiso   1.00
C156   C     0.96059   0.29983   0.71585   0.00000  Uiso   1.00
H157   H     0.08758   0.33142   0.73080   0.00000  Uiso   1.00
H158   H     0.84938   0.32608   0.70643   0.00000  Uiso   1.00
H159   H     0.91667   0.46463   0.71035   0.00000  Uiso   1.00
N160   N     1.05270   0.94278   1.00227   0.00000  Uiso   1.00
N161   N     0.98219   0.95107   1.01846   0.00000  Uiso   1.00
C162   C     0.94971   0.89608   1.06127   0.00000  Uiso   1.00
C163   C     1.00222   0.85148   0.07366   0.00000  Uiso   1.00
C164   C     1.06659   0.88213   0.03406   0.00000  Uiso   1.00
H165   H     0.99252   0.79985   0.10139   0.00000  Uiso   1.00
H166   H     1.08880   0.97465   0.96534   0.00000  Uiso   1.00
H167   H     0.95621   0.99263   0.99873   0.00000  Uiso   1.00
N168   N     0.52037   0.52098   0.26063   0.00000  Uiso   1.00
N169   N     0.53475   0.59897   0.28124   0.00000  Uiso   1.00
C170   C     0.48575   0.62673   0.23816   0.00000  Uiso   1.00
C171   C     0.43965   0.56305   0.18569   0.00000  Uiso   1.00
C172   C     0.46301   0.49642   0.20224   0.00000  Uiso   1.00
H173   H     0.39014   0.56434   0.14827   0.00000  Uiso   1.00
H174   H     0.54541   0.48494   0.29085   0.00000  Uiso   1.00
H175   H     0.57558   0.63240   0.32684   0.00000  Uiso   1.00
loop_
_geom_bond_atom_site_label_1
_geom_bond_atom_site_label_2
_geom_bond_distance
_geom_bond_site_symmetry_2
_ccdc_geom_bond_type
Yb0    O3      2.180   .     S
Yb0    O4      2.176   .     S
Yb0    O5      2.115   .     S
Yb0    O7      2.213   .     S
Yb0    O8      2.179   .     S
Yb0    O12     2.189   .     S
Yb1    O6      2.165   .     S
Yb1    O9      2.134   .     S
Yb1    O13     2.152   .     S
Yb1    O10     2.116   1_556 S
Yb1    O14     2.127   1_556 S
Yb1    O16     2.075   1_455 S
C2     O14     1.298   .     A
C2     O16     1.280   1_454 A
C2     C164    1.472   1_455 S
O3     C11     1.275   .     A
O4     C11     1.276   .     A
O5     C15     1.272   .     A
O6     C15     1.279   .     A
O7     C17     1.252   .     A
O8     C17     1.261   .     A
O9     C18     1.292   .     A
O10    Yb1     2.116   1_554 S
O10    C18     1.293   1_554 A
C11    C154    1.466   .     S
O12    C19     1.302   .     A
O13    C19     1.275   .     A
O14    Yb1     2.127   1_554 S
C15    C148    1.469   .     S
O16    Yb1     2.075   1_655 S
O16    C2      1.280   1_656 A
C17    C124    1.441   .     S
C18    C84     1.493   .     S
C18    O10     1.293   1_556 A
C19    C130    1.460   .     S
Yb20   O23     2.084   .     S
Yb20   O24     2.099   .     S
Yb20   O25     2.241   .     S
Yb20   O27     2.115   .     S
Yb20   O28     2.121   .     S
Yb20   O32     2.211   .     S
Yb21   O26     2.136   .     S
Yb21   O29     2.100   .     S
Yb21   O30     2.150   .     S
Yb21   O33     2.073   .     S
Yb21   O34     2.135   .     S
Yb21   O36     2.097   1_565 S
C22    O36     1.278   .     A
C22    C92     1.476   .     S
C22    O34     1.297   1_545 A
O23    C31     1.283   .     A
O24    C31     1.292   .     A
O25    C35     1.293   .     A
O26    C35     1.281   .     A
O27    C37     1.283   .     A
O28    C37     1.293   .     A
O29    C38     1.279   .     A
O30    C38     1.295   .     A
C31    C108    1.458   1_564 S
O32    C39     1.264   .     A
O33    C39     1.251   .     A
O34    C22     1.297   1_565 A
C35    C116    1.482   .     S
O36    Yb21    2.097   1_545 S
C37    C162    1.475   1_554 S
C38    C170    1.485   .     S
C39    C82     1.495   .     S
Yb40   O43     2.103   .     S
Yb40   O45     2.244   .     S
Yb40   O52     2.198   .     S
Yb40   O44     2.147   1_545 S
Yb40   O47     2.132   1_545 S
Yb40   O48     2.085   1_645 S
Yb41   O46     2.091   .     S
Yb41   O49     2.154   .     S
Yb41   O50     2.081   .     S
Yb41   O53     2.093   .     S
Yb41   O54     2.110   .     S
Yb41   O56     2.046   .     S
C42    O54     1.292   .     A
C42    O56     1.285   .     A
C42    C98     1.454   .     S
O43    C51     1.272   1_545 A
O44    C51     1.292   .     A
O44    Yb40    2.147   1_565 S
O45    C55     1.288   .     A
O46    C55     1.255   .     A
O47    Yb40    2.132   1_565 S
O47    C57     1.287   1_655 A
O48    C57     1.276   .     A
O48    Yb40    2.085   1_465 S
O49    C58     1.292   .     A
O50    C58     1.287   .     A
C51    O43     1.272   1_565 A
C51    C106    1.471   1_565 S
O52    C59     1.272   .     A
O53    C59     1.248   .     A
C55    C114    1.470   1_545 S
C57    C146    1.463   .     S
C57    O47     1.287   1_455 A
C58    C140    1.478   1_655 S
C59    C156    1.480   .     S
Yb60   O63     2.098   .     S
Yb60   O64     2.127   .     S
Yb60   O65     2.186   .     S
Yb60   O67     2.083   .     S
Yb60   O68     2.097   .     S
Yb60   O72     2.170   .     S
Yb61   O66     2.112   .     S
Yb61   O69     2.134   .     S
Yb61   O70     2.073   .     S
Yb61   O73     2.139   .     S
Yb61   O74     2.096   .     S
Yb61   O76     2.049   .     S
C62    O74     1.297   .     A
C62    O76     1.284   .     A
C62    C100    1.446   .     S
O63    C71     1.283   .     A
O64    C71     1.293   .     A
O65    C75     1.266   .     A
O66    C75     1.261   .     A
O67    C77     1.287   .     A
O68    C77     1.288   .     A
O69    C78     1.291   .     A
O70    C78     1.289   .     A
C71    C172    1.470   .     S
O72    C79     1.278   .     A
O73    C79     1.266   .     A
C75    C90     1.477   .     S
C77    C132    1.452   .     S
C78    C138    1.477   .     S
C79    C122    1.461   .     S
N80    N81     1.330   .     A
N80    C84     1.347   .     A
N80    H86     1.048   .     S
N81    H87     1.041   .     S
N81    C82     1.348   1_556 A
C82    C83     1.390   .     A
C82    N81     1.348   1_554 A
C83    H85     1.069   .     S
C83    C84     1.380   1_554 A
C84    C83     1.380   1_556 A
N88    N89     1.327   .     A
N88    C92     1.348   .     A
N88    H94     1.045   .     S
N89    C90     1.348   .     A
N89    H95     1.047   .     S
C90    C91     1.387   .     A
C91    C92     1.389   .     A
C91    H93     1.086   .     S
N96    N97     1.312   .     A
N96    C100    1.346   .     A
N96    H102    1.047   .     S
N97    C98     1.348   .     A
N97    H103    1.046   .     S
C98    C99     1.379   .     A
C99    C100    1.374   .     A
C99    H101    1.077   .     S
N104   N105    1.322   .     A
N104   C108    1.349   .     A
N104   H110    1.046   .     S
N105   C106    1.349   .     A
N105   H111    1.049   .     S
C106   C107    1.383   1_545 A
C106   C51     1.471   1_545 S
C107   H109    1.090   .     S
C107   C106    1.383   1_565 A
C107   C108    1.396   1_565 A
C108   C107    1.396   1_545 A
C108   C31     1.458   1_546 S
N112   N113    1.322   .     A
N112   C116    1.345   .     A
N112   H118    1.046   .     S
N113   C114    1.345   .     A
N113   H119    1.045   .     S
C114   C115    1.394   1_565 A
C114   C55     1.470   1_565 S
C115   H117    1.079   .     S
C115   C114    1.394   1_545 A
C115   C116    1.386   1_545 A
C116   C115    1.386   1_565 A
N120   N121    1.319   .     A
N120   C124    1.329   .     A
N120   H126    1.042   .     S
N121   C122    1.342   .     A
N121   H127    1.044   .     S
C122   C123    1.390   .     A
C123   C124    1.373   .     A
C123   H125    1.081   .     S
N128   N129    1.316   .     A
N128   C132    1.343   .     A
N128   H134    1.044   .     S
N129   C130    1.346   1_554 A
N129   H135    1.039   1_554 S
C130   N129    1.346   1_556 A
C130   C131    1.376   1_556 A
C131   C132    1.380   .     A
C131   H133    1.086   .     S
C131   C130    1.376   1_554 A
H135   N129    1.039   1_556 S
N136   N137    1.310   .     A
N136   C140    1.331   .     A
N136   H142    1.032   .     S
N137   C138    1.339   .     A
N137   H143    1.044   .     S
C138   C139    1.412   .     A
C139   C140    1.402   .     A
C139   H141    1.082   .     S
C140   C58     1.478   1_455 S
N144   N145    1.324   .     A
N144   C148    1.346   .     A
N144   H150    1.049   .     S
N145   C146    1.346   .     A
N145   H151    1.044   .     S
C146   C147    1.384   .     A
C147   C148    1.381   .     A
C147   H149    1.082   1_455 S
H149   C147    1.082   1_655 S
N152   N153    1.316   .     A
N152   C156    1.351   .     A
N152   H158    1.042   .     S
N153   H159    1.043   .     S
N153   C154    1.340   1_655 A
C154   C155    1.401   .     A
C154   N153    1.340   1_455 A
C155   H157    1.083   .     S
C155   C156    1.389   1_455 A
C156   C155    1.389   1_655 A
N160   N161    1.323   .     A
N160   H166    1.048   .     S
N160   C164    1.346   1_556 A
N161   C162    1.351   .     A
N161   H167    1.045   .     S
C162   C163    1.382   1_556 A
C162   C37     1.475   1_556 S
C163   C164    1.394   .     A
C163   H165    1.082   .     S
C163   C162    1.382   1_554 A
C164   N160    1.346   1_554 A
C164   C2      1.472   1_655 S
N168   N169    1.320   .     A
N168   C172    1.348   .     A
N168   H174    1.046   .     S
N169   C170    1.351   .     A
N169   H175    1.045   .     S
C170   C171    1.387   .     A
C171   C172    1.399   .     A
C171   H173    1.085   .     S
