data_lcy+N248+E220
_audit_creation_date              2025-01-21
_audit_creation_method            'Materials Studio'
_symmetry_space_group_name_H-M    'P1'
_symmetry_Int_Tables_number       1
_symmetry_cell_setting            triclinic
loop_
_symmetry_equiv_pos_as_xyz
  x,y,z
_cell_length_a                    18.8122
_cell_length_b                    19.0357
_cell_length_c                    18.6691
_cell_angle_alpha                 90.4184
_cell_angle_beta                  87.2717
_cell_angle_gamma                 88.1336
loop_
_atom_site_label
_atom_site_type_symbol
_atom_site_fract_x
_atom_site_fract_y
_atom_site_fract_z
_atom_site_U_iso_or_equiv
_atom_site_adp_type
_atom_site_occupancy
O0     O     0.15804   0.66566   0.96012   0.00000  Uiso   1.00
Yb1    Yb    0.18266   0.55542   0.81545   0.00000  Uiso   1.00
C2     C     0.25350   0.53845   0.70009   0.00000  Uiso   1.00
Yb3    Yb    0.06895   0.59328   0.93070   0.00000  Uiso   1.00
O4     O     0.24234   0.63183   0.86977   0.00000  Uiso   1.00
C5     C     0.05506   0.67111   0.81647   0.00000  Uiso   1.00
C6     C     0.22243   0.66818   0.92736   0.00000  Uiso   1.00
O7     O    -0.01232   0.67246  -0.05281   0.00000  Uiso   1.00
C8     C     0.95527   0.64301  -0.00122   0.00000  Uiso   1.00
O9     O     0.25011   0.52206   0.90511   0.00000  Uiso   1.00
O10    O     0.14222   0.50760   0.91648   0.00000  Uiso   1.00
O11    O     0.10193   0.48611   0.78371   0.00000  Uiso   1.00
O12    O     0.98751   0.58726   1.01968   0.00000  Uiso   1.00
O13    O     0.01476   0.51121   0.87172   0.00000  Uiso   1.00
C14    C     0.20460   0.50437   0.94812   0.00000  Uiso   1.00
C15    C     0.04280   0.47260   0.81866   0.00000  Uiso   1.00
O16    O     0.26141   0.49555   0.75202   0.00000  Uiso   1.00
O17    O     0.21529   0.59340   0.71451   0.00000  Uiso   1.00
O18    O     0.00619   0.64991   0.85335   0.00000  Uiso   1.00
O19    O     0.11707   0.64328   0.84111   0.00000  Uiso   1.00
O20    O     0.70509   0.98118   0.08174   0.00000  Uiso   1.00
Yb21   Yb    0.57037   0.86997   0.07272   0.00000  Uiso   1.00
C22    C     0.47362   0.81920   0.99927   0.00000  Uiso   1.00
Yb23   Yb    0.67056   0.91357   0.17199   0.00000  Uiso   1.00
O24    O     0.62308   0.94222   1.00272   0.00000  Uiso   1.00
C25    C     0.57887   1.01287   0.19725   0.00000  Uiso   1.00
C26    C     0.67605   0.98134   0.01870   0.00000  Uiso   1.00
O27    O     0.69427  -0.02302   0.26173   0.00000  Uiso   1.00
C28    C     0.74890   0.93754   0.27424   0.00000  Uiso   1.00
O29    O     0.62320   0.77756   1.01476   0.00000  Uiso   1.00
O30    O     0.67490   0.83492   0.09627   0.00000  Uiso   1.00
O31    O     0.53655   0.80559   0.15838   0.00000  Uiso   1.00
O32    O     0.76852   0.89369   0.22428   0.00000  Uiso   1.00
O33    O     0.61626   0.83797   0.24009   0.00000  Uiso   1.00
C34    C     0.67912   0.78225   0.04598   0.00000  Uiso   1.00
C35    C     0.56592   0.79882   0.21902   0.00000  Uiso   1.00
O36    O     0.53747   0.79279  -0.00290   0.00000  Uiso   1.00
O37    O     0.46668   0.87836   1.03153   0.00000  Uiso   1.00
O38    O     0.63107   1.00115   0.23291   0.00000  Uiso   1.00
O39    O     0.56670   0.95993   0.14624   0.00000  Uiso   1.00
O40    O     0.96396   0.15317   0.71787   0.00000  Uiso   1.00
Yb41   Yb    0.82350   0.15334   0.60981   0.00000  Uiso   1.00
C42    C     0.72180   0.22426   0.56068   0.00000  Uiso   1.00
Yb43   Yb    0.93199   0.05510   0.66511   0.00000  Uiso   1.00
O44    O     0.87059   0.22558   0.68190   0.00000  Uiso   1.00
C45    C     0.83608   0.05787   0.76882   0.00000  Uiso   1.00
C46    C     0.92820   0.21408   0.71711   0.00000  Uiso   1.00
O47    O     0.95181  -0.01503   0.74934   0.00000  Uiso   1.00
C48    C     0.00712   0.95552   0.71883   0.00000  Uiso   1.00
O49    O     0.91029   0.21852   0.56535   0.00000  Uiso   1.00
O50    O     0.92790   0.10920   0.56815   0.00000  Uiso   1.00
O51    O     0.80095   0.06210   0.54821   0.00000  Uiso   1.00
O52    O     1.02887   0.98688   0.66165   0.00000  Uiso   1.00
O53    O     0.87632  -0.01948   0.59919   0.00000  Uiso   1.00
C54    C     0.95498   0.17253   0.55421   0.00000  Uiso   1.00
C55    C     0.83198   0.00017   0.55054   0.00000  Uiso   1.00
O56    O     0.78248   0.21632   0.52746   0.00000  Uiso   1.00
O57    O     0.71944   0.20148   0.62480   0.00000  Uiso   1.00
O58    O     0.88927   0.01878   0.76811   0.00000  Uiso   1.00
O59    O     0.83174   0.09544   0.70538   0.00000  Uiso   1.00
O60    O     0.40768   0.27173   0.41255   0.00000  Uiso   1.00
Yb61   Yb    0.41920   0.41782   0.30261   0.00000  Uiso   1.00
C62    C     0.48895   0.52506   0.28845   0.00000  Uiso   1.00
Yb63   Yb    0.31821   0.30698   0.34501   0.00000  Uiso   1.00
O64    O     0.48581   0.35761   0.37431   0.00000  Uiso   1.00
C65    C     0.30213   0.41356   0.43087   0.00000  Uiso   1.00
C66    C     0.46936   0.30279   0.41352   0.00000  Uiso   1.00
O67    O     0.24116   0.29647   0.43116   0.00000  Uiso   1.00
C68    C     0.21832   0.23843   0.41067   0.00000  Uiso   1.00
O69    O     0.49869   0.33407   0.28064   0.00000  Uiso   1.00
O70    O     0.39144   0.31768   0.25138   0.00000  Uiso   1.00
O71    O     0.32839   0.46243   0.25632   0.00000  Uiso   1.00
O72    O     0.24831   0.21599   0.35170   0.00000  Uiso   1.00
O73    O     0.25372   0.36964   0.26986   0.00000  Uiso   1.00
C74    C     0.46046   0.29192   0.25272   0.00000  Uiso   1.00
C75    C     0.27538   0.42642   0.23697   0.00000  Uiso   1.00
O76    O     0.49091   0.47827   0.23832   0.00000  Uiso   1.00
O77    O     0.45542   0.51017   0.34666   0.00000  Uiso   1.00
O78    O     0.25738   0.36909   0.42773   0.00000  Uiso   1.00
O79    O     0.36199   0.39241   0.39209   0.00000  Uiso   1.00
C80    C     0.41007   0.78131   0.97585   0.00000  Uiso   1.00
C81    C     0.41133   0.70733   0.96845   0.00000  Uiso   1.00
C82    C     0.34775   0.67255   0.95969   0.00000  Uiso   1.00
C83    C     0.28171   0.70880   0.95574   0.00000  Uiso   1.00
C84    C     0.28018   0.78235   0.96236   0.00000  Uiso   1.00
C85    C     0.34356   0.81800   0.97303   0.00000  Uiso   1.00
O86    O     0.47959   0.61148   1.01121   0.00000  Uiso   1.00
O87    O     0.52533   0.67317   0.91910   0.00000  Uiso   1.00
N88    N     0.47630   0.66608   0.96983   0.00000  Uiso   1.00
H89    H     0.23095   0.81243   0.95689   0.00000  Uiso   1.00
H90    H     0.34069   0.87472   0.97907   0.00000  Uiso   1.00
H91    H     0.35057   0.61614   0.95215   0.00000  Uiso   1.00
C92    C     0.48716   0.22151   0.22663   0.00000  Uiso   1.00
C93    C     0.44429   0.16842   0.19873   0.00000  Uiso   1.00
C94    C     0.47368   0.09966   0.18628   0.00000  Uiso   1.00
C95    C     0.54450   0.08386   0.20210   0.00000  Uiso   1.00
C96    C     0.58755   0.13890   0.22193   0.00000  Uiso   1.00
C97    C     0.55986   0.20655   0.23188   0.00000  Uiso   1.00
O98    O     0.35331   0.16894   0.11599   0.00000  Uiso   1.00
O99    O     0.32370   0.19604   0.23058   0.00000  Uiso   1.00
N100   N     0.37251   0.18339   0.18032   0.00000  Uiso   1.00
H101   H     0.64367   0.12973   0.23012   0.00000  Uiso   1.00
H102   H     0.59588   0.24729   0.24498   0.00000  Uiso   1.00
H103   H     0.44081   0.05871   0.16665   0.00000  Uiso   1.00
C104   C     0.65717   0.24939   0.52472   0.00000  Uiso   1.00
C105   C     0.65873   0.25832   0.44961   0.00000  Uiso   1.00
C106   C     0.59533   0.26946   0.41546   0.00000  Uiso   1.00
C107   C     0.52934   0.27405   0.45330   0.00000  Uiso   1.00
C108   C     0.52694   0.26563   0.52785   0.00000  Uiso   1.00
C109   C     0.59056   0.25326   0.56321   0.00000  Uiso   1.00
O110   O     0.73117   0.21427   0.35119   0.00000  Uiso   1.00
O111   O     0.77085   0.30391   0.41533   0.00000  Uiso   1.00
N112   N     0.72388   0.25631   0.40651   0.00000  Uiso   1.00
H113   H     0.47684   0.27037   0.55880   0.00000  Uiso   1.00
H114   H     0.58780   0.24614   0.62071   0.00000  Uiso   1.00
H115   H     0.59818   0.27819   0.35849   0.00000  Uiso   1.00
C116   C     0.78681   0.06173   0.83257   0.00000  Uiso   1.00
C117   C     0.80982   0.08029   0.90169   0.00000  Uiso   1.00
C118   C     0.77037   1.05933   0.96349   0.00000  Uiso   1.00
C119   C     0.70799   0.02177   0.95760   0.00000  Uiso   1.00
C120   C     0.68114   0.01325   0.88896   0.00000  Uiso   1.00
C121   C     0.72031   0.03218   0.82732   0.00000  Uiso   1.00
O122   O     0.87324   0.16754   0.96018   0.00000  Uiso   1.00
O123   O     0.93316   1.09921   0.87847   0.00000  Uiso   1.00
N124   N     0.87302   1.11920   0.91052   0.00000  Uiso   1.00
H125   H     0.63207  -0.01339   0.88214   0.00000  Uiso   1.00
H126   H     0.70192   0.01722   0.77538   0.00000  Uiso   1.00
H127   H     0.79112   1.06860   1.01560   0.00000  Uiso   1.00
C128   C     0.81992  -0.04517   0.48793   0.00000  Uiso   1.00
C129   C     0.87147  -0.04907   0.42930   0.00000  Uiso   1.00
C130   C     0.84909  -0.05936   0.35886   0.00000  Uiso   1.00
C131   C     0.77683  -0.06405   0.34646   0.00000  Uiso   1.00
C132   C     0.72754   0.93305   0.40490   0.00000  Uiso   1.00
C133   C     0.74879   0.94206   0.47471   0.00000  Uiso   1.00
O134   O     0.97560  -0.05782   0.49636   0.00000  Uiso   1.00
O135   O     0.98418  -0.00913   0.38756   0.00000  Uiso   1.00
N136   N     0.94512  -0.03583   0.43925   0.00000  Uiso   1.00
H137   H     0.67142   0.92756   0.39614   0.00000  Uiso   1.00
H138   H     0.70821   0.94655   0.51784   0.00000  Uiso   1.00
H139   H     0.88721  -0.05901   0.31352   0.00000  Uiso   1.00
C140   C     0.29780   0.46736   0.48666   0.00000  Uiso   1.00
C141   C     0.23099   0.49877   0.50682   0.00000  Uiso   1.00
C142   C     0.22046   0.52694   0.57587   0.00000  Uiso   1.00
C143   C     0.27404   0.52126   0.62548   0.00000  Uiso   1.00
C144   C     0.34121   0.49309   0.60407   0.00000  Uiso   1.00
C145   C     0.35389   0.46894   0.53364   0.00000  Uiso   1.00
O146   O     0.10741   0.49175   0.48759   0.00000  Uiso   1.00
O147   O     0.18243   0.49764   0.39117   0.00000  Uiso   1.00
N148   N     0.17207   0.49615   0.46053   0.00000  Uiso   1.00
H149   H     0.38244   0.48699   0.64222   0.00000  Uiso   1.00
H150   H     0.40503   0.44393   0.51841   0.00000  Uiso   1.00
H151   H     0.16823   0.54825   0.59298   0.00000  Uiso   1.00
C152   C     0.21691   0.48115   0.02281   0.00000  Uiso   1.00
C153   C     0.16378   0.45406   0.07170   0.00000  Uiso   1.00
C154   C     0.18152   0.43640   0.14258   0.00000  Uiso   1.00
C155   C     0.25024   0.44650   0.16548   0.00000  Uiso   1.00
C156   C     0.30164   0.47236   0.11604   0.00000  Uiso   1.00
C157   C     0.28530   0.48929   0.04669   0.00000  Uiso   1.00
O158   O     0.08132   0.40539  -0.00502   0.00000  Uiso   1.00
O159   O     0.03937   0.45692   0.09702   0.00000  Uiso   1.00
N160   N     0.09240   0.44340   0.05118   0.00000  Uiso   1.00
H161   H     0.35629   0.47810   0.13024   0.00000  Uiso   1.00
H162   H     0.32703   0.50923   0.01134   0.00000  Uiso   1.00
H163   H     0.14202   0.41449   0.17936   0.00000  Uiso   1.00
C164   C     0.15908   0.20667   0.45243   0.00000  Uiso   1.00
C165   C     0.14413   0.22837   0.52496   0.00000  Uiso   1.00
C166   C     0.07679   0.21770   0.55738   0.00000  Uiso   1.00
C167   C     0.02583   0.18233   0.52064   0.00000  Uiso   1.00
C168   C     0.04319   0.15422   0.45221   0.00000  Uiso   1.00
C169   C     0.10896   0.16743   0.41761   0.00000  Uiso   1.00
O170   O     0.17603   0.31305   0.61066   0.00000  Uiso   1.00
O171   O     0.26188   0.23967   0.56336   0.00000  Uiso   1.00
N172   N     0.19592   0.26276   0.56580   0.00000  Uiso   1.00
H173   H     0.00421   0.12506   0.42444   0.00000  Uiso   1.00
H174   H     0.11874   0.15053   0.36247   0.00000  Uiso   1.00
H175   H     0.06446   0.23599   0.61178   0.00000  Uiso   1.00
C176   C     0.03297   0.88588   0.74593   0.00000  Uiso   1.00
C177   C     0.99762   0.85975   0.80831   0.00000  Uiso   1.00
C178   C     1.00102   0.78884   0.82319   0.00000  Uiso   1.00
C179   C     0.04726   0.74194   0.78454   0.00000  Uiso   1.00
C180   C     0.08912   0.76809   0.72677   0.00000  Uiso   1.00
C181   C     0.07940   0.83911   0.70541   0.00000  Uiso   1.00
O182   O     0.89217   0.89170   0.87682   0.00000  Uiso   1.00
O183   O     0.98936   0.95500   0.89074   0.00000  Uiso   1.00
N184   N     0.95789   0.90476   0.85849   0.00000  Uiso   1.00
H185   H     0.12727   0.73375   0.69733   0.00000  Uiso   1.00
H186   H     0.10696   0.85715   0.65711   0.00000  Uiso   1.00
H187   H     0.96963   0.77174   0.86938   0.00000  Uiso   1.00
C188   C     1.01166   0.40430   0.80101   0.00000  Uiso   1.00
C189   C     0.05646   0.34288   0.79035   0.00000  Uiso   1.00
C190   C     0.02800   0.28024   0.76608   0.00000  Uiso   1.00
C191   C     0.95564   0.27656   0.75351   0.00000  Uiso   1.00
C192   C     0.91093   0.33647   0.76806   0.00000  Uiso   1.00
C193   C     0.93857   0.39950   0.79196   0.00000  Uiso   1.00
O194   O     0.15058   0.36999   0.86487   0.00000  Uiso   1.00
O195   O     0.17666   0.30437   0.76681   0.00000  Uiso   1.00
N196   N     0.13064   0.34256   0.80549   0.00000  Uiso   1.00
H197   H     0.85465   0.33535   0.75864   0.00000  Uiso   1.00
H198   H     0.90330   0.44524   0.80053   0.00000  Uiso   1.00
H199   H     0.06304   0.23468   0.75540   0.00000  Uiso   1.00
C200   C     0.74804   0.74215   0.03228   0.00000  Uiso   1.00
C201   C     0.81102   0.78080   0.02901   0.00000  Uiso   1.00
C202   C     0.87787   0.74650   0.02698   0.00000  Uiso   1.00
C203   C     0.88505   0.67318   0.02556   0.00000  Uiso   1.00
C204   C     0.82268   0.63395   0.02884   0.00000  Uiso   1.00
C205   C     0.75458   0.66825   0.03344   0.00000  Uiso   1.00
O206   O     0.85150   0.89544   0.04931   0.00000  Uiso   1.00
O207   O     0.77354   0.87903   0.96393   0.00000  Uiso   1.00
N208   N     0.80795   0.85496   1.01773   0.00000  Uiso   1.00
H209   H     0.82643   0.57723   0.02451   0.00000  Uiso   1.00
H210   H     0.70730   0.63747   0.03750   0.00000  Uiso   1.00
H211   H     0.92499   0.77766   0.02031   0.00000  Uiso   1.00
C212   C     0.54408   0.73765   0.26050   0.00000  Uiso   1.00
C213   C     0.47232   0.71776   0.25962   0.00000  Uiso   1.00
C214   C     0.45684   0.64707   0.26779   0.00000  Uiso   1.00
C215   C     0.51084   0.59659   0.27775   0.00000  Uiso   1.00
C216   C     0.58069   0.61682   0.28555   0.00000  Uiso   1.00
C217   C     0.59734   0.68741   0.27691   0.00000  Uiso   1.00
O218   O     0.35691   0.74770   0.21969   0.00000  Uiso   1.00
O219   O     0.42068   0.83372   0.26452   0.00000  Uiso   1.00
N220   N     0.41569   0.76804   0.24619   0.00000  Uiso   1.00
H221   H     0.62208   0.57812   0.29662   0.00000  Uiso   1.00
H222   H     0.65267   0.70159   0.27662   0.00000  Uiso   1.00
H223   H     0.40223   0.63091   0.26591   0.00000  Uiso   1.00
loop_
_geom_bond_atom_site_label_1
_geom_bond_atom_site_label_2
_geom_bond_distance
_geom_bond_site_symmetry_2
_ccdc_geom_bond_type
O0     C6      1.333   .     A
O0     Yb3     2.288   .     S
Yb1    Yb3     3.027   .     S
Yb1    O4      2.144   .     S
Yb1    O9      2.232   .     S
Yb1    O10     2.213   .     S
Yb1    O11     2.146   .     S
Yb1    O16     2.145   .     S
Yb1    O17     2.095   .     S
Yb1    O19     2.085   .     S
C2     O16     1.283   .     A
C2     O17     1.269   .     A
C2     C143    1.460   .     S
Yb3    O10     2.108   .     S
Yb3    O13     2.209   .     S
Yb3    O18     2.178   .     S
Yb3    O19     2.111   .     S
Yb3    O7      2.122   1_556 S
Yb3    O12     2.212   1_455 S
O4     C6      1.307   .     A
C5     O18     1.204   .     D
C5     O19     1.367   .     S
C5     C179    1.484   .     S
C6     C83     1.493   .     S
O7     Yb3     2.122   1_554 S
O7     C8      1.260   1_455 A
C8     C203    1.486   .     S
C8     O7      1.260   1_655 A
C8     O12     1.278   1_554 A
O9     C14     1.204   .     D
O10    C14     1.338   .     S
O11    C15     1.297   .     A
O12    Yb3     2.212   1_655 S
O12    C8      1.278   1_556 A
O13    C15     1.309   .     A
C14    C152    1.492   1_556 S
C15    C188    1.484   1_455 S
O20    C26     1.321   .     A
O20    Yb23    2.213   .     S
Yb21   Yb23    2.844   .     S
Yb21   O30     2.123   .     S
Yb21   O31     2.109   .     S
Yb21   O36     2.156   .     S
Yb21   O39     2.184   .     S
Yb21   O24     2.139   1_554 S
Yb21   O29     2.238   1_554 S
Yb21   O37     2.132   1_554 S
C22    O37     1.273   .     A
C22    C80     1.497   .     S
C22    O36     1.286   1_556 A
Yb23   O30     2.048   .     S
Yb23   O32     2.150   .     S
Yb23   O33     2.175   .     S
Yb23   O38     2.106   .     S
Yb23   O39     2.193   .     S
Yb23   O27     2.131   1_565 S
O24    Yb21    2.139   1_556 S
O24    C26     1.308   1_556 A
C25    O38     1.228   .     D
C25    O39     1.413   .     S
C25    C95     1.479   1_565 S
C26    O24     1.308   1_554 A
C26    C119    1.494   1_564 S
O27    Yb23    2.131   1_545 S
O27    C28     1.284   1_545 A
C28    O32     1.280   .     A
C28    O27     1.284   1_565 A
C28    C131    1.470   1_565 S
O29    Yb21    2.238   1_556 S
O29    C34     1.232   1_556 D
O30    C34     1.366   .     S
O31    C35     1.289   .     A
O33    C35     1.298   .     A
C34    C200    1.494   .     S
C34    O29     1.232   1_554 D
C35    C212    1.462   .     S
O36    C22     1.286   1_554 A
O37    Yb21    2.132   1_556 S
O40    C46     1.322   .     A
O40    Yb43    2.218   .     S
Yb41   Yb43    2.951   .     S
Yb41   O44     2.157   .     S
Yb41   O49     2.216   .     S
Yb41   O50     2.215   .     S
Yb41   O51     2.141   .     S
Yb41   O56     2.116   .     S
Yb41   O57     2.139   .     S
Yb41   O59     2.113   .     S
C42    O56     1.277   .     A
C42    O57     1.275   .     A
C42    C104    1.484   .     S
Yb43   O47     2.109   .     S
Yb43   O50     2.093   .     S
Yb43   O53     2.196   .     S
Yb43   O58     2.175   .     S
Yb43   O59     2.115   .     S
Yb43   O52     2.201   1_545 S
O44    C46     1.307   .     A
C45    O58     1.227   .     D
C45    O59     1.392   .     S
C45    C116    1.473   .     S
C46    C191    1.485   .     S
O47    C48     1.274   1_645 A
C48    C176    1.497   .     S
C48    O47     1.274   1_465 A
C48    O52     1.283   1_455 A
O49    C54     1.204   .     D
O50    C54     1.346   .     S
O51    C55     1.300   .     A
O52    Yb43    2.201   1_565 S
O52    C48     1.283   1_655 A
O53    C55     1.310   .     A
C54    C167    1.464   1_655 S
C55    C128    1.479   .     S
O60    C66     1.320   .     A
O60    Yb63    2.239   .     S
Yb61   Yb63    2.972   .     S
Yb61   O64     2.183   .     S
Yb61   O69     2.173   .     S
Yb61   O70     2.215   .     S
Yb61   O71     2.108   .     S
Yb61   O76     2.134   .     S
Yb61   O77     2.084   .     S
Yb61   O79     2.014   .     S
C62    O76     1.286   .     A
C62    O77     1.269   .     A
C62    C215    1.448   .     S
Yb63   O67     2.128   .     S
Yb63   O70     2.188   .     S
Yb63   O72     2.209   .     S
Yb63   O73     2.226   .     S
Yb63   O78     2.193   .     S
Yb63   O79     2.057   .     S
O64    C66     1.316   .     A
C65    O78     1.216   .     D
C65    O79     1.358   .     S
C65    C140    1.453   .     S
C66    C107    1.473   .     S
O67    C68     1.262   .     A
C68    O72     1.277   .     A
C68    C164    1.478   .     S
O69    C74     1.225   .     D
O70    C74     1.374   .     S
O71    C75     1.292   .     A
O73    C75     1.314   .     A
C74    C92     1.486   .     S
C75    C155    1.486   .     S
C80    C81     1.414   .     A
C80    C85     1.416   .     A
C81    C82     1.402   .     A
C81    N88     1.432   .     S
C82    C83     1.407   .     A
C82    H91     1.081   .     S
C83    C84     1.404   .     A
C84    C85     1.412   .     A
C84    H89     1.082   .     S
C85    H90     1.084   .     S
O86    N88     1.301   .     A
O87    N88     1.301   .     A
C92    C93     1.424   .     A
C92    C97     1.396   .     A
C93    C94     1.418   .     A
C93    N100    1.429   .     S
C94    C95     1.402   .     A
C94    H103    1.083   .     S
C95    C96     1.403   .     A
C95    C25     1.479   1_545 S
C96    C97     1.381   .     A
C96    H101    1.083   .     S
C97    H102    1.081   .     S
O98    N100    1.301   .     A
O99    N100    1.297   .     A
C104   C105    1.413   .     A
C104   C109    1.414   .     A
C105   C106    1.390   .     A
C105   N112    1.433   .     S
C106   C107    1.399   .     A
C106   H115    1.077   .     S
C107   C108    1.401   .     A
C108   C109    1.408   .     A
C108   H113    1.083   .     S
C109   H114    1.082   .     S
O110   N112    1.301   .     A
O111   N112    1.301   .     A
C116   C117    1.426   .     A
C116   C121    1.396   .     A
C117   C118    1.409   1_545 A
C117   N124    1.437   1_545 S
C118   H127    1.081   .     S
C118   C117    1.409   1_565 A
C118   C119    1.402   1_565 A
C119   C120    1.410   .     A
C119   C118    1.402   1_545 A
C119   C26     1.494   1_546 S
C120   C121    1.393   .     A
C120   H125    1.080   .     S
C121   H126    1.084   .     S
O122   N124    1.302   1_545 A
O123   N124    1.299   .     A
N124   C117    1.437   1_565 S
N124   O122    1.302   1_565 A
C128   C129    1.427   .     A
C128   C133    1.401   1_545 A
C129   C130    1.414   .     A
C129   N136    1.437   .     S
C130   C131    1.395   .     A
C130   H139    1.083   .     S
C131   C132    1.400   1_545 A
C131   C28     1.470   1_545 S
C132   C133    1.392   .     A
C132   H137    1.084   .     S
C132   C131    1.400   1_565 A
C133   H138    1.084   .     S
C133   C128    1.401   1_565 A
O134   N136    1.300   .     A
O135   N136    1.301   .     A
C140   C141    1.408   .     A
C140   C145    1.405   .     A
C141   C142    1.395   .     A
C141   N148    1.439   .     S
C142   C143    1.403   .     A
C142   H151    1.084   .     S
C143   C144    1.396   .     A
C144   C145    1.397   .     A
C144   H149    1.082   .     S
C145   H150    1.084   .     S
O146   N148    1.300   .     A
O147   N148    1.301   .     A
C152   C153    1.432   .     A
C152   C157    1.395   .     A
C152   C14     1.492   1_554 S
C153   C154    1.420   .     A
C153   N160    1.434   .     S
C154   C155    1.399   .     A
C154   H163    1.083   .     S
C155   C156    1.408   .     A
C156   C157    1.383   .     A
C156   H161    1.083   .     S
C157   H162    1.081   .     S
O158   N160    1.299   .     A
O159   N160    1.301   .     A
C164   C165    1.425   .     A
C164   C169    1.402   .     A
C165   C166    1.399   .     A
C165   N172    1.437   .     S
C166   C167    1.393   .     A
C166   H175    1.083   .     S
C167   C168    1.401   .     A
C167   C54     1.464   1_455 S
C168   C169    1.399   .     A
C168   H173    1.083   .     S
C169   H174    1.082   .     S
O170   N172    1.301   .     A
O171   N172    1.301   .     A
C176   C181    1.416   .     A
C176   C177    1.415   1_455 A
C177   C178    1.380   .     A
C177   N184    1.432   .     S
C177   C176    1.415   1_655 A
C178   H187    1.080   .     S
C178   C179    1.398   1_655 A
C179   C180    1.408   .     A
C179   C178    1.398   1_455 A
C180   C181    1.421   .     A
C180   H185    1.082   .     S
C181   H186    1.082   .     S
O182   N184    1.299   .     A
O183   N184    1.300   .     A
C188   C193    1.399   .     A
C188   C189    1.426   1_655 A
C188   C15     1.484   1_655 S
C189   C190    1.404   .     A
C189   N196    1.437   .     S
C189   C188    1.426   1_455 A
C190   H199    1.084   .     S
C190   C191    1.396   1_455 A
C191   C192    1.412   .     A
C191   C190    1.396   1_655 A
C192   C193    1.401   .     A
C192   H197    1.082   .     S
C193   H198    1.083   .     S
O194   N196    1.299   .     A
O195   N196    1.300   .     A
C200   C201    1.414   .     A
C200   C205    1.408   .     A
C201   C202    1.397   .     A
C201   N208    1.429   1_554 S
C202   C203    1.398   .     A
C202   H211    1.085   .     S
C203   C204    1.410   .     A
C204   C205    1.418   .     A
C204   H209    1.082   .     S
C205   H210    1.081   .     S
O206   N208    1.301   1_554 A
O207   N208    1.299   .     A
N208   C201    1.429   1_556 S
N208   O206    1.301   1_556 A
C212   C213    1.415   .     A
C212   C217    1.408   .     A
C213   C214    1.394   .     A
C213   N220    1.441   .     S
C214   C215    1.395   .     A
C214   H223    1.084   .     S
C215   C216    1.395   .     A
C216   C217    1.398   .     A
C216   H221    1.083   .     S
C217   H222    1.084   .     S
O218   N220    1.302   .     A
O219   N220    1.301   .     A
