data_lcy+N106+E14
_audit_creation_date              2025-01-21
_audit_creation_method            'Materials Studio'
_symmetry_space_group_name_H-M    'P1'
_symmetry_Int_Tables_number       1
_symmetry_cell_setting            triclinic
loop_
_symmetry_equiv_pos_as_xyz
  x,y,z
_cell_length_a                    18.3823
_cell_length_b                    18.8633
_cell_length_c                    19.7859
_cell_angle_alpha                 102.8376
_cell_angle_beta                  102.1823
_cell_angle_gamma                 94.5459
loop_
_atom_site_label
_atom_site_type_symbol
_atom_site_fract_x
_atom_site_fract_y
_atom_site_fract_z
_atom_site_U_iso_or_equiv
_atom_site_adp_type
_atom_site_occupancy
Y0     Y     0.11858   0.66281   0.77976   0.00000  Uiso   1.00
Y1     Y     0.18391   0.56433   0.87675   0.00000  Uiso   1.00
O2     O     0.14981   0.57839   0.69729   0.00000  Uiso   1.00
O3     O     0.08610   0.53910   0.77907   0.00000  Uiso   1.00
C4     C     0.24165   0.48520   0.96728   0.00000  Uiso   1.00
O5     O     0.06857   0.52976   0.88079   0.00000  Uiso   1.00
O6     O     0.12513   0.77226   0.75212   0.00000  Uiso   1.00
O7     O     0.02079   0.70746   0.71884   0.00000  Uiso   1.00
O8     O     0.23283   0.53786   0.77657   0.00000  Uiso   1.00
O9     O     0.20647   0.68412   0.88333   0.00000  Uiso   1.00
O10    O     0.24450   0.70003   0.79319   0.00000  Uiso   1.00
O11    O     0.05530   0.68215   0.86608   0.00000  Uiso   1.00
C12    C     0.20625   0.54435   0.71203   0.00000  Uiso   1.00
O13    O     0.13348   0.64612   0.95110   0.00000  Uiso   1.00
C14    C     0.03828   0.51363   0.81822   0.00000  Uiso   1.00
O15    O     0.18500   0.46145   0.91644   0.00000  Uiso   1.00
O16    O     0.27398   0.54653  -0.03370   0.00000  Uiso   1.00
C17    C     0.05688   0.76879   0.72311   0.00000  Uiso   1.00
C18    C     0.07512   0.67580   0.93004   0.00000  Uiso   1.00
C19    C     0.26527   0.70455   0.85611   0.00000  Uiso   1.00
Y20    Y     0.73243   0.82185   0.12801   0.00000  Uiso   1.00
Y21    Y     0.62594   0.93011   0.19409   0.00000  Uiso   1.00
O22    O     0.65595   0.74326   0.16006   0.00000  Uiso   1.00
O23    O     0.60815   0.83972   0.09161   0.00000  Uiso   1.00
C24    C     0.56176   1.03674   0.25961   0.00000  Uiso   1.00
O25    O     0.51785   0.89653   0.11485   0.00000  Uiso   1.00
O26    O     0.85085   0.82910   0.11429   0.00000  Uiso   1.00
O27    O     0.77894   0.73172   1.05933   0.00000  Uiso   1.00
O28    O     0.62030   0.83011   0.24031   0.00000  Uiso   1.00
O29    O     0.74834   0.91985   0.22208   0.00000  Uiso   1.00
O30    O     0.78286   0.82077   0.24332   0.00000  Uiso   1.00
O31    O     0.72033   0.90265   0.05959   0.00000  Uiso   1.00
C32    C     0.62845   0.76272   0.21490   0.00000  Uiso   1.00
O33    O     0.66001   0.98867   0.11548   0.00000  Uiso   1.00
C34    C     0.53303   0.85058   0.06967   0.00000  Uiso   1.00
O35    O     0.53435   0.97011   0.24146   0.00000  Uiso   1.00
O36    O     0.63116   0.05004   0.25980   0.00000  Uiso   1.00
C37    C     0.84428   0.76681   0.07237   0.00000  Uiso   1.00
C38    C     0.69277   0.96331   0.06608   0.00000  Uiso   1.00
C39    C     0.77189   0.88096   0.27226   0.00000  Uiso   1.00
Y40    Y     0.76737   0.10458   0.71201   0.00000  Uiso   1.00
Y41    Y     0.86278   0.14674   0.61134   0.00000  Uiso   1.00
O42    O     0.67467   0.13916   0.63983   0.00000  Uiso   1.00
O43    O     0.76171   0.06185   0.58976   0.00000  Uiso   1.00
C44    C     0.94935   0.20779   0.54179   0.00000  Uiso   1.00
O45    O     0.86101   0.03247   0.55421   0.00000  Uiso   1.00
O46    O     0.79133   0.10747   0.82766   0.00000  Uiso   1.00
O47    O     0.68699   0.05171   0.76503   0.00000  Uiso   1.00
O48    O     0.75368   0.19991   0.59245   0.00000  Uiso   1.00
O49    O     0.87233   0.18291   0.72674   0.00000  Uiso   1.00
O50    O     0.77583   0.22940   0.74834   0.00000  Uiso   1.00
O51    O     0.84496   0.01964   0.70429   0.00000  Uiso   1.00
C52    C     0.68765   0.18537   0.60393   0.00000  Uiso   1.00
O53    O     0.93762   0.07886   0.67228   0.00000  Uiso   1.00
C54    C     0.79799   0.00859   0.55280   0.00000  Uiso   1.00
O55    O     0.89545   0.15762   0.51145   0.00000  Uiso   1.00
O56    O     0.95663   0.22887   0.60814   0.00000  Uiso   1.00
C57    C     0.73073   0.07124   0.82666   0.00000  Uiso   1.00
C58    C     0.91082   0.02389   0.69223   0.00000  Uiso   1.00
C59    C     0.83958   0.24509   0.74455   0.00000  Uiso   1.00
Y60    Y     0.43804   0.44679   0.38062   0.00000  Uiso   1.00
Y61    Y     0.29335   0.33598   0.36436   0.00000  Uiso   1.00
O62    O     0.49551   0.37851   0.44546   0.00000  Uiso   1.00
O63    O     0.40434   0.32255   0.34374   0.00000  Uiso   1.00
C64    C     0.17240   0.29195   0.40550   0.00000  Uiso   1.00
O65    O     0.30815   0.25182   0.26914   0.00000  Uiso   1.00
O66    O     0.46481   0.56281   0.37832   0.00000  Uiso   1.00
O67    O     0.54313   0.49118   0.35411   0.00000  Uiso   1.00
O68    O     0.38865   0.32095   0.45915   0.00000  Uiso   1.00
O69    O     0.32637   0.45698   0.40879   0.00000  Uiso   1.00
O70    O     0.42589   0.49030   0.49299   0.00000  Uiso   1.00
O71    O     0.37700   0.42594   0.26829   0.00000  Uiso   1.00
C72    C     0.46182   0.33710   0.47570   0.00000  Uiso   1.00
O73    O     0.26116   0.37377   0.26144   0.00000  Uiso   1.00
C74    C     0.37665   0.26393   0.28545   0.00000  Uiso   1.00
O75    O     0.22505   0.25403   0.39996   0.00000  Uiso   1.00
O76    O     0.17890   0.34986   0.38562   0.00000  Uiso   1.00
C77    C     0.52359   0.55436   0.35596   0.00000  Uiso   1.00
C78    C     0.30913   0.40357   0.23360   0.00000  Uiso   1.00
C79    C     0.35824   0.48098   0.48163   0.00000  Uiso   1.00
C80    C     0.39903   0.83172   0.01218   0.00000  Uiso   1.00
C81    C     0.47072   0.81240   1.00751   0.00000  Uiso   1.00
C82    C     0.47622   0.75907   0.94673   0.00000  Uiso   1.00
C83    C     0.40989   0.72482   0.89377   0.00000  Uiso   1.00
C84    C     0.33864   0.74296   0.90245   0.00000  Uiso   1.00
C85    C     0.33468   0.79716   0.96118   0.00000  Uiso   1.00
H86    H     0.38775   0.86656   0.06021   0.00000  Uiso   1.00
H87    H     0.52985   0.74274   0.94116   0.00000  Uiso   1.00
H88    H     0.41375   0.68144   0.84893   0.00000  Uiso   1.00
H89    H     0.28098   0.81224  -0.03037   0.00000  Uiso   1.00
C90    C     0.50114   0.22215   0.27956   0.00000  Uiso   1.00
C91    C     0.42265   0.20618   0.26808   0.00000  Uiso   1.00
C92    C     0.39195   0.13413   0.26204   0.00000  Uiso   1.00
C93    C     0.43594   0.07719   0.25837   0.00000  Uiso   1.00
C94    C     0.51353   0.09418   0.26857   0.00000  Uiso   1.00
C95    C     0.54608   0.16631   0.27899   0.00000  Uiso   1.00
H96    H     0.52755   0.27834   0.28984   0.00000  Uiso   1.00
H97    H     0.33404   0.12252   0.26314   0.00000  Uiso   1.00
H98    H     0.40978   0.02080   0.24935   0.00000  Uiso   1.00
H99    H     0.60536   0.17682   0.28277   0.00000  Uiso   1.00
C100   C     0.55140   0.19087   0.55258   0.00000  Uiso   1.00
C101   C     0.62621   0.22543   0.57855   0.00000  Uiso   1.00
C102   C     0.64190   0.30018   0.58222   0.00000  Uiso   1.00
C103   C     0.58495   0.33849   0.55596   0.00000  Uiso   1.00
C104   C     0.51131   0.30270   0.52389   0.00000  Uiso   1.00
C105   C     0.49435   0.22913   0.52462   0.00000  Uiso   1.00
H106   H     0.53787   0.13299   0.55020   0.00000  Uiso   1.00
H107   H     0.69838   0.32837   0.60483   0.00000  Uiso   1.00
H108   H     0.59972   0.39575   0.55746   0.00000  Uiso   1.00
H109   H     0.43836   0.20024   0.49940   0.00000  Uiso   1.00
C110   C     0.64516   1.02196   0.89412   0.00000  Uiso   1.00
C111   C     0.71641   1.05233   0.89145   0.00000  Uiso   1.00
C112   C     0.77697   1.06161   0.95106   0.00000  Uiso   1.00
C113   C     0.76808   1.03599   1.00998   0.00000  Uiso   1.00
C114   C     0.69794   1.00315   1.01156   0.00000  Uiso   1.00
C115   C     0.63610   0.99734   0.95422   0.00000  Uiso   1.00
H116   H     0.59699   1.01488   0.84927   0.00000  Uiso   1.00
H117   H     0.83250   1.08520   0.95049   0.00000  Uiso   1.00
H118   H     0.81660   1.04068   0.05371   0.00000  Uiso   1.00
H119   H     0.58164   0.97125   0.95509   0.00000  Uiso   1.00
C120   C     0.70876   0.96268   0.44002   0.00000  Uiso   1.00
C121   C     0.76453   0.94631   0.49254   0.00000  Uiso   1.00
C122   C     0.81262   0.89548   0.47037   0.00000  Uiso   1.00
C123   C     0.81237   0.87213   0.39789   0.00000  Uiso   1.00
C124   C     0.76660   0.90071   0.34722   0.00000  Uiso   1.00
C125   C     0.71242   0.94337   0.36846   0.00000  Uiso   1.00
H126   H     0.67204   1.00236   0.45518   0.00000  Uiso   1.00
H127   H     0.85861   0.88013   0.50560   0.00000  Uiso   1.00
H128   H     0.85256   0.83640   0.38245   0.00000  Uiso   1.00
H129   H     0.67395   0.96281   0.33006   0.00000  Uiso   1.00
C130   C     0.35641   0.49552   0.61049   0.00000  Uiso   1.00
C131   C     0.31757   0.49014   0.53947   0.00000  Uiso   1.00
C132   C     0.24108   0.49681   0.52561   0.00000  Uiso   1.00
C133   C     0.20458   0.51088   0.58153   0.00000  Uiso   1.00
C134   C     0.24315   0.51701   0.65289   0.00000  Uiso   1.00
C135   C     0.31946   0.50826   0.66635   0.00000  Uiso   1.00
H136   H     0.41591   0.49103   0.62281   0.00000  Uiso   1.00
H137   H     0.21000   0.49323   0.47156   0.00000  Uiso   1.00
H138   H     0.14566   0.51721   0.56846   0.00000  Uiso   1.00
H139   H     0.35134   0.51430   0.72044   0.00000  Uiso   1.00
C140   C     0.20508   0.40929   0.04687   0.00000  Uiso   1.00
C141   C     0.26076   0.45108   0.02748   0.00000  Uiso   1.00
C142   C     0.33228   0.47085   0.07282   0.00000  Uiso   1.00
C143   C     0.34714   0.45185   0.13760   0.00000  Uiso   1.00
C144   C     0.29089   0.41452   0.16071   0.00000  Uiso   1.00
C145   C     0.21973   0.39189   0.11360   0.00000  Uiso   1.00
H146   H     0.14907   0.39405   0.01239   0.00000  Uiso   1.00
H147   H     0.37673   0.50219   0.05940   0.00000  Uiso   1.00
H148   H     0.40287   0.46995   0.17161   0.00000  Uiso   1.00
H149   H     0.17595   0.36181   0.12903   0.00000  Uiso   1.00
C150   C     0.09004   0.32578   0.48766   0.00000  Uiso   1.00
C151   C     0.11169   0.27257   0.43636   0.00000  Uiso   1.00
C152   C     0.07848   0.19981   0.41851   0.00000  Uiso   1.00
C153   C     0.02249   0.18019   0.45087   0.00000  Uiso   1.00
C154   C     0.00248   0.23209   0.50416   0.00000  Uiso   1.00
C155   C     0.03578   0.30494   0.52218   0.00000  Uiso   1.00
H156   H     0.11046   0.38392   0.49936   0.00000  Uiso   1.00
H157   H     0.09562   0.15884   0.37943   0.00000  Uiso   1.00
H158   H    -0.00236   0.12333   0.43692   0.00000  Uiso   1.00
H159   H     0.01919   0.34590   0.56212   0.00000  Uiso   1.00
C160   C     0.90889   0.89007   0.68400   0.00000  Uiso   1.00
C161   C     0.95124   0.95882   0.69464   0.00000  Uiso   1.00
C162   C     0.02959   0.96285   0.70512   0.00000  Uiso   1.00
C163   C     0.06488   0.90002   0.70959   0.00000  Uiso   1.00
C164   C     1.02199   0.83211   0.70410   0.00000  Uiso   1.00
C165   C     0.94349   0.82777   0.68875   0.00000  Uiso   1.00
H166   H     0.84821   0.88434   0.67364   0.00000  Uiso   1.00
H167   H     0.06332   1.01503   0.71114   0.00000  Uiso   1.00
H168   H     0.12581   0.90561   0.71970   0.00000  Uiso   1.00
H169   H     0.90878   0.77634   0.68237   0.00000  Uiso   1.00
C170   C     0.93919   0.41996   0.72233   0.00000  Uiso   1.00
C171   C    -0.02635   0.45409   0.79433   0.00000  Uiso   1.00
C172   C    -0.04547   0.42128   0.84735   0.00000  Uiso   1.00
C173   C    -0.09304   0.35615   0.83008   0.00000  Uiso   1.00
C174   C     0.87692   0.31999   0.75912   0.00000  Uiso   1.00
C175   C     0.89138   0.35259   0.70488   0.00000  Uiso   1.00
H176   H     0.95284   0.44297   0.68026   0.00000  Uiso   1.00
H177   H    -0.01920   0.44474   0.90353   0.00000  Uiso   1.00
H178   H    -0.10420   0.33203   0.87217   0.00000  Uiso   1.00
H179   H     0.86648   0.32596   0.64916   0.00000  Uiso   1.00
C180   C     0.97423   0.78789   0.05455   0.00000  Uiso   1.00
C181   C     0.90699   0.74047   1.04203   0.00000  Uiso   1.00
C182   C     0.89953   0.66937   0.99848   0.00000  Uiso   1.00
C183   C     0.95730   0.64699   0.96587   0.00000  Uiso   1.00
C184   C     1.02332   0.69527   0.97644   0.00000  Uiso   1.00
C185   C     1.03170   0.76548   1.02142   0.00000  Uiso   1.00
H186   H     0.98136   0.84304   0.08817   0.00000  Uiso   1.00
H187   H     0.84859   0.63163   0.98854   0.00000  Uiso   1.00
H188   H     0.94911   0.59291   0.92945   0.00000  Uiso   1.00
H189   H     0.08134   0.80408   1.02859   0.00000  Uiso   1.00
C190   C     0.64585   0.64933   0.26250   0.00000  Uiso   1.00
C191   C     0.60541   0.70849   0.25254   0.00000  Uiso   1.00
C192   C     0.54546   0.72055   0.28550   0.00000  Uiso   1.00
C193   C     0.52322   0.67246   0.32320   0.00000  Uiso   1.00
C194   C     0.55910   0.61038   0.32822   0.00000  Uiso   1.00
C195   C     0.62167   0.59960   0.29872   0.00000  Uiso   1.00
H196   H     0.69602   0.64169   0.24244   0.00000  Uiso   1.00
H197   H     0.51454   0.76640   0.28034   0.00000  Uiso   1.00
H198   H     0.47566   0.68256   0.34640   0.00000  Uiso   1.00
H199   H     0.65031   0.55199   0.30252   0.00000  Uiso   1.00
loop_
_geom_bond_atom_site_label_1
_geom_bond_atom_site_label_2
_geom_bond_distance
_geom_bond_site_symmetry_2
_ccdc_geom_bond_type
Y0     O2      2.217   .     S
Y0     O3      2.359   .     S
Y0     O6      2.251   .     S
Y0     O7      2.274   .     S
Y0     O9      2.259   .     S
Y0     O10     2.307   .     S
Y0     O11     2.243   .     S
Y1     O3      2.277   .     S
Y1     O5      2.192   .     S
Y1     O8      2.317   .     S
Y1     O9      2.235   .     S
Y1     O13     2.280   .     S
Y1     O15     2.249   .     S
Y1     O16     2.260   1_556 S
O2     C12     1.279   .     A
O3     C14     1.410   .     S
C4     O15     1.257   .     A
C4     O16     1.264   1_556 A
C4     C141    1.468   1_556 S
O5     C14     1.204   .     D
O6     C17     1.255   .     A
O7     C17     1.264   .     A
O8     C12     1.304   .     A
O9     C19     1.371   .     S
O10    C19     1.204   .     D
O11    C18     1.276   .     A
C12    C134    1.489   .     S
O13    C18     1.284   .     A
C14    C171    1.487   .     S
O16    Y1      2.260   1_554 S
O16    C4      1.264   1_554 A
C17    C164    1.483   1_455 S
C18    C184    1.469   1_455 S
C19    C84     1.488   .     S
Y20    O22     2.245   .     S
Y20    O23     2.321   .     S
Y20    O26     2.247   .     S
Y20    O29     2.263   .     S
Y20    O30     2.280   .     S
Y20    O31     2.247   .     S
Y20    O27     2.272   1_554 S
Y21    O23     2.285   .     S
Y21    O25     2.203   .     S
Y21    O28     2.276   .     S
Y21    O29     2.235   .     S
Y21    O33     2.257   .     S
Y21    O35     2.199   .     S
Y21    O36     2.329   1_565 S
O22    C32     1.285   .     A
O23    C34     1.403   .     S
C24    O35     1.259   .     A
C24    O36     1.280   1_565 A
C24    C94     1.458   1_565 S
O25    C34     1.195   .     D
O26    C37     1.259   .     A
O27    Y20     2.272   1_556 S
O27    C37     1.271   1_556 A
O28    C32     1.292   .     A
O29    C39     1.380   .     S
O30    C39     1.206   .     D
O31    C38     1.279   .     A
C32    C191    1.477   .     S
O33    C38     1.278   .     A
C34    C81     1.491   1_554 S
O36    Y21     2.329   1_545 S
O36    C24     1.280   1_545 A
C37    O27     1.271   1_554 A
C37    C181    1.479   1_554 S
C38    C114    1.459   1_554 S
C39    C124    1.473   .     S
Y40    O42     2.221   .     S
Y40    O43     2.351   .     S
Y40    O46     2.224   .     S
Y40    O47     2.272   .     S
Y40    O49     2.261   .     S
Y40    O50     2.286   .     S
Y40    O51     2.229   .     S
Y41    O43     2.256   .     S
Y41    O45     2.194   .     S
Y41    O48     2.310   .     S
Y41    O49     2.198   .     S
Y41    O53     2.292   .     S
Y41    O55     2.229   .     S
Y41    O56     2.246   .     S
O42    C52     1.279   .     A
O43    C54     1.405   .     S
C44    O55     1.259   .     A
C44    O56     1.259   .     A
C44    C154    1.451   1_655 S
O45    C54     1.202   .     D
O46    C57     1.254   .     A
O47    C57     1.268   .     A
O48    C52     1.301   .     A
O49    C59     1.371   .     S
O50    C59     1.208   .     D
O51    C58     1.282   .     A
C52    C101    1.471   .     S
O53    C58     1.287   .     A
C54    C121    1.461   1_545 S
C57    C111    1.473   1_545 S
C58    C161    1.489   1_545 S
C59    C174    1.460   .     S
Y60    O62     2.191   .     S
Y60    O63     2.287   .     S
Y60    O66     2.217   .     S
Y60    O67     2.253   .     S
Y60    O69     2.249   .     S
Y60    O70     2.257   .     S
Y60    O71     2.201   .     S
Y61    O63     2.186   .     S
Y61    O65     2.258   .     S
Y61    O68     2.365   .     S
Y61    O69     2.239   .     S
Y61    O73     2.282   .     S
Y61    O75     2.239   .     S
Y61    O76     2.255   .     S
O62    C72     1.280   .     A
O63    C74     1.381   .     S
C64    O75     1.257   .     A
C64    O76     1.246   .     A
C64    C151    1.440   .     S
O65    C74     1.221   .     D
O66    C77     1.260   .     A
O67    C77     1.267   .     A
O68    C72     1.309   .     A
O69    C79     1.392   .     S
O70    C79     1.207   .     D
O71    C78     1.278   .     A
C72    C104    1.470   .     S
O73    C78     1.289   .     A
C74    C91     1.457   .     S
C77    C194    1.464   .     S
C78    C144    1.475   .     S
C79    C131    1.481   .     S
C80    H86     1.098   .     S
C80    C81     1.411   1_554 A
C80    C85     1.387   1_554 A
C81    C82     1.414   .     A
C81    C80     1.411   1_556 A
C81    C34     1.491   1_556 S
C82    C83     1.427   .     A
C82    H87     1.076   .     S
C83    C84     1.415   .     A
C83    H88     1.084   .     S
C84    C85     1.386   .     A
C85    C80     1.387   1_556 A
C85    H89     1.085   1_556 S
H89    C85     1.085   1_554 S
C90    C91     1.409   .     A
C90    C95     1.389   .     A
C90    H96     1.087   .     S
C91    C92     1.399   .     A
C92    C93     1.393   .     A
C92    H97     1.075   .     S
C93    C94     1.398   .     A
C93    H98     1.092   .     S
C94    C95     1.395   .     A
C94    C24     1.458   1_545 S
C95    H99     1.076   .     S
C100   C101    1.411   .     A
C100   C105    1.407   .     A
C100   H106    1.089   .     S
C101   C102    1.399   .     A
C102   C103    1.395   .     A
C102   H107    1.082   .     S
C103   C104    1.412   .     A
C103   H108    1.085   .     S
C104   C105    1.402   .     A
C105   H109    1.086   .     S
C110   C111    1.404   .     A
C110   C115    1.405   .     A
C110   H116    1.089   .     S
C111   C112    1.409   .     A
C111   C57     1.473   1_565 S
C112   C113    1.392   .     A
C112   H117    1.084   .     S
C113   C114    1.395   .     A
C113   H118    1.086   1_556 S
C114   C115    1.404   .     A
C114   C38     1.459   1_556 S
C115   H119    1.085   .     S
H118   C113    1.086   1_554 S
C120   C121    1.403   .     A
C120   C125    1.399   .     A
C120   H126    1.082   .     S
C121   C122    1.416   .     A
C121   C54     1.461   1_565 S
C122   C123    1.402   .     A
C122   H127    1.079   .     S
C123   C124    1.400   .     A
C123   H128    1.084   .     S
C124   C125    1.403   .     A
C125   H129    1.072   .     S
C130   C131    1.413   .     A
C130   C135    1.402   .     A
C130   H136    1.084   .     S
C131   C132    1.396   .     A
C132   C133    1.399   .     A
C132   H137    1.086   .     S
C133   C134    1.415   .     A
C133   H138    1.082   .     S
C134   C135    1.402   .     A
C135   H139    1.083   .     S
C140   C141    1.410   .     A
C140   C145    1.407   .     A
C140   H146    1.085   .     S
C141   C142    1.396   .     A
C141   C4      1.468   1_554 S
C142   C143    1.385   .     A
C142   H147    1.083   .     S
C143   C144    1.415   .     A
C143   H148    1.082   .     S
C144   C145    1.408   .     A
C145   H149    1.082   .     S
C150   C151    1.406   .     A
C150   C155    1.400   .     A
C150   H156    1.087   .     S
C151   C152    1.394   .     A
C152   C153    1.389   .     A
C152   H157    1.082   .     S
C153   C154    1.403   .     A
C153   H158    1.083   .     S
C154   C155    1.395   .     A
C154   C44     1.451   1_455 S
C155   H159    1.087   .     S
C160   C161    1.408   .     A
C160   C165    1.392   .     A
C160   H166    1.083   .     S
C161   C162    1.405   1_655 A
C161   C58     1.489   1_565 S
C162   C163    1.406   .     A
C162   H167    1.090   .     S
C162   C161    1.405   1_455 A
C163   H168    1.088   .     S
C163   C164    1.420   1_455 A
C164   C165    1.402   .     A
C164   C163    1.420   1_655 A
C164   C17     1.483   1_655 S
C165   H169    1.085   .     S
C170   C175    1.417   .     A
C170   H176    1.084   .     S
C170   C171    1.411   1_655 A
C171   C172    1.420   .     A
C171   C170    1.411   1_455 A
C172   C173    1.381   .     A
C172   H177    1.089   .     S
C173   H178    1.081   .     S
C173   C174    1.389   1_455 A
C174   C175    1.410   .     A
C174   C173    1.389   1_655 A
C175   H179    1.087   .     S
C180   H186    1.085   .     S
C180   C181    1.409   1_554 A
C180   C185    1.402   1_554 A
C181   C182    1.403   .     A
C181   C180    1.409   1_556 A
C181   C37     1.479   1_556 S
C182   C183    1.401   .     A
C182   H187    1.085   .     S
C183   C184    1.407   .     A
C183   H188    1.089   .     S
C184   C185    1.399   .     A
C184   C18     1.469   1_655 S
C185   C180    1.402   1_556 A
C185   H189    1.085   1_655 S
H189   C185    1.085   1_455 S
C190   C191    1.416   .     A
C190   C195    1.399   .     A
C190   H196    1.086   .     S
C191   C192    1.403   .     A
C192   C193    1.385   .     A
C192   H197    1.083   .     S
C193   C194    1.401   .     A
C193   H198    1.081   .     S
C194   C195    1.404   .     A
C195   H199    1.085   .     S
