data_lcy+N248+E8
_audit_creation_date              2025-01-21
_audit_creation_method            'Materials Studio'
_symmetry_space_group_name_H-M    'P1'
_symmetry_Int_Tables_number       1
_symmetry_cell_setting            triclinic
loop_
_symmetry_equiv_pos_as_xyz
  x,y,z
_cell_length_a                    21.7629
_cell_length_b                    21.5482
_cell_length_c                    22.3022
_cell_angle_alpha                 88.4081
_cell_angle_beta                  89.0241
_cell_angle_gamma                 87.5494
loop_
_atom_site_label
_atom_site_type_symbol
_atom_site_fract_x
_atom_site_fract_y
_atom_site_fract_z
_atom_site_U_iso_or_equiv
_atom_site_adp_type
_atom_site_occupancy
O0     O     0.14750   0.67725   0.95123   0.00000  Uiso   1.00
Yb1    Yb    0.18307   0.58921   0.82876   0.00000  Uiso   1.00
C2     C     0.25627   0.57251   0.74360   0.00000  Uiso   1.00
Yb3    Yb    0.07829   0.61307   0.91687   0.00000  Uiso   1.00
O4     O     0.22669   0.65507   0.88259   0.00000  Uiso   1.00
C5     C     0.06665   0.66924   0.81256   0.00000  Uiso   1.00
C6     C     0.20359   0.68439   0.92899   0.00000  Uiso   1.00
O7     O     0.00351   0.67731   0.93399   0.00000  Uiso   1.00
C8     C     0.98240   0.64470   0.97713   0.00000  Uiso   1.00
O9     O     0.24033   0.56216   0.90716   0.00000  Uiso   1.00
O10    O     0.14666   0.54066   0.90654   0.00000  Uiso   1.00
O11    O     0.11797   0.53116   0.79179   0.00000  Uiso   1.00
O12    O     1.01410   0.59501   0.98979   0.00000  Uiso   1.00
O13    O     0.03820   0.54125   0.86072   0.00000  Uiso   1.00
C14    C     0.19973   0.54042   0.93756   0.00000  Uiso   1.00
C15    C     0.06570   0.51468   0.81445   0.00000  Uiso   1.00
O16    O     0.25555   0.53464   0.78890   0.00000  Uiso   1.00
O17    O     0.22435   0.62314   0.74894   0.00000  Uiso   1.00
O18    O     0.02487   0.64338   0.83728   0.00000  Uiso   1.00
O19    O     0.11883   0.66164   0.84485   0.00000  Uiso   1.00
O20    O     0.70313   0.97737   0.09095   0.00000  Uiso   1.00
Yb21   Yb    0.58309   0.88423   0.09402   0.00000  Uiso   1.00
C22    C     0.49615   0.84671   1.03210   0.00000  Uiso   1.00
Yb23   Yb    0.67907   0.91947   0.16931   0.00000  Uiso   1.00
O24    O     0.62337   0.94882   0.03131   0.00000  Uiso   1.00
C25    C     0.59682   1.00421   0.19553   0.00000  Uiso   1.00
C26    C     0.67295   0.97903   0.04037   0.00000  Uiso   1.00
O27    O     0.70491   0.97794   0.23931   0.00000  Uiso   1.00
C28    C     0.75494   0.94602   0.24881   0.00000  Uiso   1.00
O29    O     0.61652   0.80594   0.04206   0.00000  Uiso   1.00
O30    O     0.67661   0.84866   0.10621   0.00000  Uiso   1.00
O31    O     0.56259   0.82397   0.16876   0.00000  Uiso   1.00
O32    O     0.76891   0.90540   0.20943   0.00000  Uiso   1.00
O33    O     0.63785   0.85394   0.23151   0.00000  Uiso   1.00
C34    C     0.66830   0.80411   0.06355   0.00000  Uiso   1.00
C35    C     0.59346   0.81875   0.21794   0.00000  Uiso   1.00
O36    O     0.55088   0.82198   0.02915   0.00000  Uiso   1.00
O37    O     0.48987   0.89400   1.06517   0.00000  Uiso   1.00
O38    O     0.64755   0.99890   0.21874   0.00000  Uiso   1.00
O39    O     0.58595   0.95828   0.15456   0.00000  Uiso   1.00
O40    O     0.95478   0.15723   0.70951   0.00000  Uiso   1.00
Yb41   Yb    0.82570   0.15733   0.62943   0.00000  Uiso   1.00
C42    C     0.73151   0.21699   0.59256   0.00000  Uiso   1.00
Yb43   Yb    0.92897   0.07741   0.65797   0.00000  Uiso   1.00
O44    O     0.86969   0.22129   0.68495   0.00000  Uiso   1.00
C45    C     0.85984   0.05251   0.74955   0.00000  Uiso   1.00
C46    C     0.92177   0.20971   0.71215   0.00000  Uiso   1.00
O47    O     0.96387   0.00374   0.71483   0.00000  Uiso   1.00
C48    C     1.01085   0.99334   0.68084   0.00000  Uiso   1.00
O49    O     0.84963   0.21132   0.54850   0.00000  Uiso   1.00
O50    O     0.91585   0.14403   0.58941   0.00000  Uiso   1.00
O51    O     0.80112   0.08028   0.57812   0.00000  Uiso   1.00
O52    O     1.01873   1.03395   0.63864   0.00000  Uiso   1.00
O53    O     0.88403   0.01490   0.59923   0.00000  Uiso   1.00
C54    C     0.90256   0.18890   0.54547   0.00000  Uiso   1.00
C55    C     0.83396   0.02963   0.57028   0.00000  Uiso   1.00
O56    O     0.78386   0.22072   0.56539   0.00000  Uiso   1.00
O57    O     0.73259   0.18926   0.64391   0.00000  Uiso   1.00
O58    O     0.90903   0.02521   0.73802   0.00000  Uiso   1.00
O59    O     0.84034   0.09521   0.70459   0.00000  Uiso   1.00
O60    O     0.36749   0.31043   0.44854   0.00000  Uiso   1.00
Yb61   Yb    0.41000   0.41808   0.34602   0.00000  Uiso   1.00
C62    C     0.48985   0.49804   0.32536   0.00000  Uiso   1.00
Yb63   Yb    0.31100   0.33826   0.37090   0.00000  Uiso   1.00
O64    O     0.44711   0.37559   0.42554   0.00000  Uiso   1.00
C65    C     0.27863   0.43511   0.43098   0.00000  Uiso   1.00
C66    C     0.42210   0.33166   0.45748   0.00000  Uiso   1.00
O67    O     0.22254   0.33427   0.41460   0.00000  Uiso   1.00
C68    C     0.21473   0.27841   0.39949   0.00000  Uiso   1.00
O69    O     0.47920   0.37476   0.29199   0.00000  Uiso   1.00
O70    O     0.39679   0.32263   0.32052   0.00000  Uiso   1.00
O71    O     0.35696   0.44360   0.26871   0.00000  Uiso   1.00
O72    O     0.25943   0.25392   0.36885   0.00000  Uiso   1.00
O73    O     0.27583   0.38027   0.28722   0.00000  Uiso   1.00
C74    C     0.45415   0.32464   0.29048   0.00000  Uiso   1.00
C75    C     0.30653   0.41875   0.25322   0.00000  Uiso   1.00
O76    O     0.49616   0.44311   0.30425   0.00000  Uiso   1.00
O77    O     0.44294   0.50729   0.35909   0.00000  Uiso   1.00
O78    O     0.24463   0.39169   0.42590   0.00000  Uiso   1.00
O79    O     0.33170   0.42906   0.39714   0.00000  Uiso   1.00
C80    C     0.33924   0.79292   1.00422   0.00000  Uiso   1.00
C81    C     0.35013   0.75899   0.95226   0.00000  Uiso   1.00
N82    N     0.40690   0.75642   0.92625   0.00000  Uiso   1.00
C83    C     0.45409   0.78592   0.95023   0.00000  Uiso   1.00
C84    C     0.44399   0.82005   1.00235   0.00000  Uiso   1.00
N85    N     0.38647   0.82308   1.02818   0.00000  Uiso   1.00
N86    N     0.28231   0.79287   1.03091   0.00000  Uiso   1.00
C87    C     0.23608   0.75992   1.00801   0.00000  Uiso   1.00
C88    C     0.24755   0.72544   0.95609   0.00000  Uiso   1.00
N89    N     0.30444   0.72671   0.92983   0.00000  Uiso   1.00
H90    H     0.49923   0.78213   0.92922   0.00000  Uiso   1.00
H91    H     0.19163   0.75991   1.03047   0.00000  Uiso   1.00
C92    C     0.48797   0.16382   0.23833   0.00000  Uiso   1.00
C93    C     0.55086   0.16680   0.22411   0.00000  Uiso   1.00
N94    N     0.57898   0.22143   0.22698   0.00000  Uiso   1.00
C95    C     0.54749   0.27338   0.24501   0.00000  Uiso   1.00
C96    C     0.48533   0.27035   0.26275   0.00000  Uiso   1.00
N97    N     0.45659   0.21553   0.25835   0.00000  Uiso   1.00
N98    N     0.46019   0.10869   0.23380   0.00000  Uiso   1.00
C99    C     0.49296   0.05634   0.21697   0.00000  Uiso   1.00
C100   C     0.55657   0.05906   0.20634   0.00000  Uiso   1.00
N101   N     0.58354   0.11450   0.20963   0.00000  Uiso   1.00
H102   H     0.57163   0.31607   0.24773   0.00000  Uiso   1.00
H103   H     0.47026   1.01283   0.21430   0.00000  Uiso   1.00
C104   C     0.57008   0.27205   0.56298   0.00000  Uiso   1.00
C105   C     0.56374   0.25203   0.50430   0.00000  Uiso   1.00
N106   N     0.61181   0.22286   0.47594   0.00000  Uiso   1.00
C107   C     0.66656   0.21323   0.50343   0.00000  Uiso   1.00
C108   C     0.67371   0.23345   0.56208   0.00000  Uiso   1.00
N109   N     0.62470   0.26140   0.59131   0.00000  Uiso   1.00
N110   N     0.52240   0.30469   0.58934   0.00000  Uiso   1.00
C111   C     0.46955   0.31944   0.55892   0.00000  Uiso   1.00
C112   C     0.46404   0.30010   0.49970   0.00000  Uiso   1.00
N113   N     0.51141   0.26651   0.47444   0.00000  Uiso   1.00
H114   H     0.70382   0.18853   0.48019   0.00000  Uiso   1.00
H115   H     0.43405   0.34909   0.57920   0.00000  Uiso   1.00
C116   C     0.74648   0.04638   0.87673   0.00000  Uiso   1.00
C117   C     0.78502   0.02461   0.92359   0.00000  Uiso   1.00
N118   N     0.84601   0.01530   0.91299   0.00000  Uiso   1.00
C119   C     0.87023   0.02521   0.85741   0.00000  Uiso   1.00
C120   C     0.83189   0.04511   0.80974   0.00000  Uiso   1.00
N121   N     0.77074   0.05666   0.82070   0.00000  Uiso   1.00
N122   N     0.68494   0.05262   0.88726   0.00000  Uiso   1.00
C123   C     0.66017   0.03619   0.94162   0.00000  Uiso   1.00
C124   C     0.69857   0.01229   0.98776   0.00000  Uiso   1.00
N125   N     0.76029   1.00815   0.97763   0.00000  Uiso   1.00
H126   H     0.91921   0.01709   0.85041   0.00000  Uiso   1.00
H127   H     0.61074   0.03905   0.94799   0.00000  Uiso   1.00
C128   C     0.83317   0.96751   0.41860   0.00000  Uiso   1.00
C129   C     0.76988  -0.03850   0.41152   0.00000  Uiso   1.00
N130   N     0.73098  -0.03219   0.45930   0.00000  Uiso   1.00
C131   C     0.75218  -0.01781   0.51384   0.00000  Uiso   1.00
C132   C     0.81508  -0.00834   0.52085   0.00000  Uiso   1.00
N133   N     0.85436  -0.01671   0.47300   0.00000  Uiso   1.00
N134   N     0.87143   0.96267   0.36974   0.00000  Uiso   1.00
C135   C     0.84895   0.95307   0.31401   0.00000  Uiso   1.00
C136   C     0.78517   0.95020   0.30683   0.00000  Uiso   1.00
N137   N     0.74767  -0.04622   0.35612   0.00000  Uiso   1.00
H138   H     0.71963  -0.00935   0.55030   0.00000  Uiso   1.00
H139   H     0.88009   0.95040   0.27574   0.00000  Uiso   1.00
C140   C     0.30507   0.49745   0.57831   0.00000  Uiso   1.00
C141   C     0.25884   0.54451   0.58270   0.00000  Uiso   1.00
N142   N     0.22105   0.55724   0.53545   0.00000  Uiso   1.00
C143   C     0.22678   0.52398   0.48453   0.00000  Uiso   1.00
C144   C     0.27293   0.47694   0.48059   0.00000  Uiso   1.00
N145   N     0.31123   0.46525   0.52743   0.00000  Uiso   1.00
N146   N     0.33930   0.48081   0.62703   0.00000  Uiso   1.00
C147   C     0.32824   0.50803   0.68053   0.00000  Uiso   1.00
C148   C     0.28132   0.55429   0.68537   0.00000  Uiso   1.00
N149   N     0.24830   0.57197   0.63587   0.00000  Uiso   1.00
H150   H     0.19558   0.53362   0.44783   0.00000  Uiso   1.00
H151   H     0.35349   0.49155   0.71964   0.00000  Uiso   1.00
C152   C     0.26973   0.46547   0.07259   0.00000  Uiso   1.00
C153   C     0.22344   0.47566   0.11650   0.00000  Uiso   1.00
N154   N     0.16935   0.50461   0.10024   0.00000  Uiso   1.00
C155   C     0.15985   0.52433   0.04244   0.00000  Uiso   1.00
C156   C     0.20707   0.51622  -0.00077   0.00000  Uiso   1.00
N157   N     0.26084   0.48662   0.01542   0.00000  Uiso   1.00
N158   N     0.32356   0.43605   0.08809   0.00000  Uiso   1.00
C159   C     0.33404   0.41790   0.14582   0.00000  Uiso   1.00
C160   C     0.28920   0.43037   0.19047   0.00000  Uiso   1.00
N161   N     0.23423   0.45839   0.17482   0.00000  Uiso   1.00
H162   H     0.11670   0.54790   0.03085   0.00000  Uiso   1.00
H163   H     0.37776   0.39509   0.15723   0.00000  Uiso   1.00
C164   C     0.05245   0.25884   0.44708   0.00000  Uiso   1.00
C165   C     0.05381   0.19697   0.46825   0.00000  Uiso   1.00
N166   N     0.10641   0.16113   0.46212   0.00000  Uiso   1.00
C167   C     0.15814   0.18459   0.43643   0.00000  Uiso   1.00
C168   C     0.15784   0.24745   0.41774   0.00000  Uiso   1.00
N169   N     0.10461   0.28284   0.42347   0.00000  Uiso   1.00
N170   N    -0.00025   0.29461   0.45275   0.00000  Uiso   1.00
C171   C     0.94859   0.27163   0.47986   0.00000  Uiso   1.00
C172   C     0.95087   0.21073   0.50409   0.00000  Uiso   1.00
N173   N     0.00351   0.17475   0.49722   0.00000  Uiso   1.00
H174   H     0.19971   0.15532   0.43341   0.00000  Uiso   1.00
H175   H     0.90774   0.30159   0.48535   0.00000  Uiso   1.00
C176   C     1.02801   0.82538   0.70238   0.00000  Uiso   1.00
C177   C     0.08391   0.81865   0.73250   0.00000  Uiso   1.00
N178   N     0.11970   0.86859   0.73682   0.00000  Uiso   1.00
C179   C     0.10113   0.92561   0.71401   0.00000  Uiso   1.00
C180   C     0.04379   0.93294   0.68641   0.00000  Uiso   1.00
N181   N     1.00927   0.88225   0.68075   0.00000  Uiso   1.00
N182   N     0.98975   0.77719   0.70198   0.00000  Uiso   1.00
C183   C     1.00387   0.72296   0.73233   0.00000  Uiso   1.00
C184   C     0.05838   0.71710   0.76513   0.00000  Uiso   1.00
N185   N     0.09768   0.76476   0.76327   0.00000  Uiso   1.00
H186   H     0.12837   0.96542   0.72156   0.00000  Uiso   1.00
H187   H     0.97107   0.68651   0.73412   0.00000  Uiso   1.00
C188   C     0.97593   0.37362   0.79059   0.00000  Uiso   1.00
C189   C     1.01189   0.34469   0.74544   0.00000  Uiso   1.00
N190   N     0.06088   0.37345   0.72158   0.00000  Uiso   1.00
C191   C     0.07617   0.42963   0.74092   0.00000  Uiso   1.00
C192   C     0.04149   0.45877   0.78734   0.00000  Uiso   1.00
N193   N     0.99191   0.42965   0.81128   0.00000  Uiso   1.00
N194   N     0.92521   0.34536   0.81227   0.00000  Uiso   1.00
C195   C     0.90858   0.29024   0.79026   0.00000  Uiso   1.00
C196   C     0.94484   0.26140   0.74528   0.00000  Uiso   1.00
N197   N     0.99568   0.28955   0.72403   0.00000  Uiso   1.00
H198   H     0.11649   0.45023   0.72108   0.00000  Uiso   1.00
H199   H     0.86671   0.26977   0.80660   0.00000  Uiso   1.00
C200   C     0.82128   0.72216   0.05607   0.00000  Uiso   1.00
C201   C     0.81982   0.69546  -0.00055   0.00000  Uiso   1.00
N202   N     0.76726   0.70022  -0.03263   0.00000  Uiso   1.00
C203   C     0.71638   0.73174  -0.01124   0.00000  Uiso   1.00
C204   C     0.71871   0.76145   0.04388   0.00000  Uiso   1.00
N205   N     0.77111   0.75534   0.07656   0.00000  Uiso   1.00
N206   N     0.87392   0.71733   0.08811   0.00000  Uiso   1.00
C207   C     0.92562   0.68808   0.06553   0.00000  Uiso   1.00
C208   C     0.92501   0.66389   0.00783   0.00000  Uiso   1.00
N209   N     0.87195   0.66813  -0.02384   0.00000  Uiso   1.00
H210   H     0.67548   0.73599  -0.03823   0.00000  Uiso   1.00
H211   H     0.96762   0.68676   0.09091   0.00000  Uiso   1.00
C212   C     0.58060   0.65490   0.26154   0.00000  Uiso   1.00
C213   C     0.54160   0.65842   0.31204   0.00000  Uiso   1.00
N214   N     0.52535   0.71487   0.33477   0.00000  Uiso   1.00
C215   C     0.54509   0.76823   0.30810   0.00000  Uiso   1.00
C216   C     0.58155   0.76459   0.25588   0.00000  Uiso   1.00
N217   N     0.59888   0.70799   0.23427   0.00000  Uiso   1.00
N218   N     0.59549   0.59883   0.23766   0.00000  Uiso   1.00
C219   C     0.57129   0.54597   0.26077   0.00000  Uiso   1.00
C220   C     0.52907   0.54975   0.30887   0.00000  Uiso   1.00
N221   N     0.51624   0.60593   0.33404   0.00000  Uiso   1.00
H222   H     0.53001   0.81284   0.32555   0.00000  Uiso   1.00
H223   H     0.58199   0.50225   0.23949   0.00000  Uiso   1.00
loop_
_geom_bond_atom_site_label_1
_geom_bond_atom_site_label_2
_geom_bond_distance
_geom_bond_site_symmetry_2
_ccdc_geom_bond_type
O0     C6      1.323   .     A
O0     Yb3     2.246   .     S
Yb1    Yb3     3.021   .     S
Yb1    O4      2.146   .     S
Yb1    O9      2.215   .     S
Yb1    O10     2.157   .     S
Yb1    O11     2.121   .     S
Yb1    O16     2.124   .     S
Yb1    O17     2.107   .     S
Yb1    O19     2.085   .     S
C2     O16     1.281   .     A
C2     O17     1.275   .     A
C2     C148    1.457   .     S
Yb3    O7      2.127   .     S
Yb3    O10     2.124   .     S
Yb3    O13     2.233   .     S
Yb3    O18     2.207   .     S
Yb3    O19     2.096   .     S
Yb3    O12     2.164   1_455 S
O4     C6      1.309   .     A
C5     O18     1.204   .     D
C5     O19     1.357   .     S
C5     C184    1.464   .     S
C6     C88     1.478   .     S
O7     C8      1.267   1_455 A
C8     O12     1.276   .     A
C8     O7      1.267   1_655 A
C8     C208    1.464   1_556 S
O9     C14     1.207   .     D
O10    C14     1.356   .     S
O11    C15     1.296   .     A
O12    Yb3     2.164   1_655 S
O13    C15     1.317   .     A
C14    C156    1.466   1_556 S
C15    C192    1.483   .     S
O20    C26     1.314   .     A
O20    Yb23    2.188   .     S
Yb21   Yb23    2.843   .     S
Yb21   O24     2.148   .     S
Yb21   O29     2.166   .     S
Yb21   O30     2.163   .     S
Yb21   O31     2.137   .     S
Yb21   O36     2.146   .     S
Yb21   O39     2.122   .     S
Yb21   O37     2.139   1_554 S
C22    O37     1.276   .     A
C22    C84     1.470   .     S
C22    O36     1.285   1_556 A
Yb23   O27     2.131   .     S
Yb23   O30     2.107   .     S
Yb23   O32     2.170   .     S
Yb23   O33     2.163   .     S
Yb23   O38     2.143   .     S
Yb23   O39     2.186   .     S
O24    C26     1.305   .     A
C25    O38     1.227   .     D
C25    O39     1.396   .     S
C25    C100    1.464   1_565 S
C26    C124    1.472   1_564 S
O27    C28     1.280   .     A
C28    O32     1.281   .     A
C28    C136    1.468   .     S
O29    C34     1.231   .     D
O30    C34     1.390   .     S
O31    C35     1.296   .     A
O33    C35     1.298   .     A
C34    C204    1.470   .     S
C35    C216    1.452   .     S
O36    C22     1.285   1_554 A
O37    Yb21    2.139   1_556 S
O40    C46     1.316   .     A
O40    Yb43    2.193   .     S
Yb41   Yb43    2.842   .     S
Yb41   O44     2.144   .     S
Yb41   O49     2.187   .     S
Yb41   O50     2.153   .     S
Yb41   O51     2.134   .     S
Yb41   O56     2.136   .     S
Yb41   O57     2.134   .     S
Yb41   O59     2.136   .     S
C42    O56     1.286   .     A
C42    O57     1.277   .     A
C42    C108    1.466   .     S
Yb43   O47     2.127   .     S
Yb43   O50     2.083   .     S
Yb43   O53     2.177   .     S
Yb43   O58     2.132   .     S
Yb43   O59     2.200   .     S
Yb43   O52     2.172   1_545 S
O44    C46     1.306   .     A
C45    O58     1.226   .     D
C45    O59     1.401   .     S
C45    C120    1.472   .     S
C46    C196    1.464   .     S
O47    C48     1.278   1_545 A
C48    O52     1.282   .     A
C48    O47     1.278   1_565 A
C48    C180    1.462   1_655 S
O49    C54     1.231   .     D
O50    C54     1.383   .     S
O51    C55     1.293   .     A
O52    Yb43    2.172   1_565 S
O53    C55     1.299   .     A
C54    C172    1.471   .     S
C55    C132    1.465   .     S
O60    C66     1.312   .     A
O60    Yb63    2.196   .     S
Yb61   Yb63    2.851   .     S
Yb61   O64     2.129   .     S
Yb61   O69     2.115   .     S
Yb61   O70     2.181   .     S
Yb61   O71     2.137   .     S
Yb61   O76     2.162   .     S
Yb61   O77     2.110   .     S
Yb61   O79     2.043   .     S
C62    O76     1.287   .     A
C62    O77     1.270   .     A
C62    C220    1.467   .     S
Yb63   O67     2.147   .     S
Yb63   O70     2.181   .     S
Yb63   O72     2.179   .     S
Yb63   O73     2.187   .     S
Yb63   O78     2.189   .     S
Yb63   O79     2.126   .     S
O64    C66     1.301   .     A
C65    O78     1.226   .     D
C65    O79     1.372   .     S
C65    C144    1.447   .     S
C66    C112    1.457   .     S
O67    C68     1.278   .     A
C68    O72     1.283   .     A
C68    C168    1.477   .     S
O69    C74     1.232   .     D
O70    C74     1.408   .     S
O71    C75     1.298   .     A
O73    C75     1.305   .     A
C74    C96     1.473   .     S
C75    C160    1.468   .     S
C80    C81     1.399   .     A
C80    N85     1.364   .     A
C80    N86     1.365   .     A
C81    N82     1.356   .     A
C81    N89     1.348   .     A
N82    C83     1.356   .     A
C83    C84     1.402   .     A
C83    H90     1.082   .     S
C84    N85     1.369   .     A
N86    C87     1.370   .     A
C87    C88     1.406   .     A
C87    H91     1.082   .     S
C88    N89     1.361   .     A
C92    C93     1.403   .     A
C92    N97     1.364   .     A
C92    N98     1.363   .     A
C93    N94     1.353   .     A
C93    N101    1.351   .     A
N94    C95     1.354   .     A
C95    C96     1.407   .     A
C95    H102    1.082   .     S
C96    N97     1.367   .     A
N98    C99     1.367   .     A
C99    C100    1.404   .     A
C99    H103    1.082   1_545 S
C100   N101    1.358   .     A
C100   C25     1.464   1_545 S
H103   C99     1.082   1_565 S
C104   C105    1.400   .     A
C104   N109    1.364   .     A
C104   N110    1.363   .     A
C105   N106    1.354   .     A
C105   N113    1.350   .     A
N106   C107    1.355   .     A
C107   C108    1.404   .     A
C107   H114    1.083   .     S
C108   N109    1.367   .     A
N110   C111    1.366   .     A
C111   C112    1.404   .     A
C111   H115    1.083   .     S
C112   N113    1.357   .     A
C116   C117    1.409   .     A
C116   N121    1.364   .     A
C116   N122    1.357   .     A
C117   N118    1.352   .     A
C117   N125    1.356   1_545 A
N118   C119    1.354   .     A
C119   C120    1.409   .     A
C119   H126    1.082   .     S
C120   N121    1.363   .     A
N122   C123    1.362   .     A
C123   C124    1.409   .     A
C123   H127    1.082   .     S
C124   N125    1.358   1_545 A
C124   C26     1.472   1_546 S
N125   C117    1.356   1_565 A
N125   C124    1.358   1_565 A
C128   N134    1.364   .     A
C128   C129    1.401   1_565 A
C128   N133    1.362   1_565 A
C129   N130    1.356   .     A
C129   N137    1.352   .     A
C129   C128    1.401   1_545 A
N130   C131    1.357   .     A
C131   C132    1.405   .     A
C131   H138    1.083   .     S
C132   N133    1.367   .     A
N133   C128    1.362   1_545 A
N134   C135    1.368   .     A
C135   C136    1.404   .     A
C135   H139    1.082   .     S
C136   N137    1.360   1_565 A
N137   C136    1.360   1_545 A
C140   C141    1.402   .     A
C140   N145    1.348   .     A
C140   N146    1.359   .     A
C141   N142    1.362   .     A
C141   N149    1.352   .     A
N142   C143    1.361   .     A
C143   C144    1.400   .     A
C143   H150    1.083   .     S
C144   N145    1.359   .     A
N146   C147    1.357   .     A
C147   C148    1.401   .     A
C147   H151    1.082   .     S
C148   N149    1.364   .     A
C152   C153    1.408   .     A
C152   N157    1.356   .     A
C152   N158    1.353   .     A
C153   N154    1.358   .     A
C153   N161    1.364   .     A
N154   C155    1.362   .     A
C155   C156    1.406   .     A
C155   H162    1.080   .     S
C156   N157    1.358   .     A
C156   C14     1.466   1_554 S
N158   C159    1.355   .     A
C159   C160    1.406   .     A
C159   H163    1.083   .     S
C160   N161    1.363   .     A
C164   C165    1.401   .     A
C164   N169    1.359   .     A
C164   N170    1.360   .     A
C165   N166    1.360   .     A
C165   N173    1.360   .     A
N166   C167    1.364   .     A
C167   C168    1.406   .     A
C167   H174    1.083   .     S
C168   N169    1.365   .     A
N170   C171    1.363   1_455 A
C171   C172    1.404   .     A
C171   H175    1.084   .     S
C171   N170    1.363   1_655 A
C172   N173    1.365   1_655 A
N173   C172    1.365   1_455 A
C176   N181    1.353   .     A
C176   N182    1.359   .     A
C176   C177    1.400   1_655 A
C177   N178    1.362   .     A
C177   N185    1.357   .     A
C177   C176    1.400   1_455 A
N178   C179    1.364   .     A
C179   C180    1.402   .     A
C179   H186    1.082   .     S
C180   N181    1.362   1_455 A
C180   C48     1.462   1_455 S
N181   C180    1.362   1_655 A
N182   C183    1.360   .     A
C183   H187    1.083   .     S
C183   C184    1.403   1_655 A
C184   N185    1.364   .     A
C184   C183    1.403   1_455 A
C188   C189    1.408   .     A
C188   N193    1.365   .     A
C188   N194    1.359   .     A
C189   N197    1.355   .     A
C189   N190    1.350   1_655 A
N190   C191    1.353   .     A
N190   C189    1.350   1_455 A
C191   C192    1.416   .     A
C191   H198    1.083   .     S
C192   N193    1.365   1_455 A
N193   C192    1.365   1_655 A
N194   C195    1.363   .     A
C195   C196    1.407   .     A
C195   H199    1.082   .     S
C196   N197    1.357   .     A
C200   C201    1.404   .     A
C200   N205    1.359   .     A
C200   N206    1.359   .     A
C201   N202    1.358   .     A
C201   N209    1.358   .     A
N202   C203    1.360   .     A
C203   C204    1.404   .     A
C203   H210    1.082   .     S
C204   N205    1.364   .     A
N206   C207    1.362   .     A
C207   C208    1.402   .     A
C207   H211    1.082   .     S
C208   N209    1.362   .     A
C208   C8      1.464   1_554 S
C212   C213    1.400   .     A
C212   N217    1.352   .     A
C212   N218    1.358   .     A
C213   N214    1.361   .     A
C213   N221    1.356   .     A
N214   C215    1.362   .     A
C215   C216    1.400   .     A
C215   H222    1.083   .     S
C216   N217    1.360   .     A
N218   C219    1.360   .     A
C219   C220    1.402   .     A
C219   H223    1.081   .     S
C220   N221    1.365   .     A
