data_lcy+N144+E191
_audit_creation_date              2025-01-21
_audit_creation_method            'Materials Studio'
_symmetry_space_group_name_H-M    'P1'
_symmetry_Int_Tables_number       1
_symmetry_cell_setting            triclinic
loop_
_symmetry_equiv_pos_as_xyz
  x,y,z
_cell_length_a                    30.7176
_cell_length_b                    30.3335
_cell_length_c                    26.9288
_cell_angle_alpha                 85.3088
_cell_angle_beta                  85.7389
_cell_angle_gamma                 82.5253
loop_
_atom_site_label
_atom_site_type_symbol
_atom_site_fract_x
_atom_site_fract_y
_atom_site_fract_z
_atom_site_U_iso_or_equiv
_atom_site_adp_type
_atom_site_occupancy
C0     C     0.20671   0.69582   0.92790   0.00000  Uiso   1.00
Er1    Er    0.09300   0.60980   0.85603   0.00000  Uiso   1.00
Er2    Er    0.14402   0.65422   0.86783   0.00000  Uiso   1.00
C3     C     0.06244   0.67398   0.93550   0.00000  Uiso   1.00
O4     O     0.16878   0.60577   0.92535   0.00000  Uiso   1.00
C5     C     0.08169   0.69911   0.79400   0.00000  Uiso   1.00
C6     C     0.17434   0.59452   0.78387   0.00000  Uiso   1.00
C7     C     0.06062   0.54670   0.81343   0.00000  Uiso   1.00
O8     O     0.18125   0.68351   0.96147   0.00000  Uiso   1.00
O9     O     0.19601   0.69641   0.87848   0.00000  Uiso   1.00
O10    O     0.18818   0.62152   0.81094   0.00000  Uiso   1.00
O11    O     0.13599   0.58273   0.79417   0.00000  Uiso   1.00
O12    O     0.11831   0.70226   0.81137   0.00000  Uiso   1.00
O13    O     0.06318   0.66377   0.80462   0.00000  Uiso   1.00
C14    C     0.15359   0.56888   0.93553   0.00000  Uiso   1.00
O15    O     0.12341   0.55896   0.90993   0.00000  Uiso   1.00
O16    O     0.09853   0.68914   0.92233   0.00000  Uiso   1.00
O17    O     0.05360   0.63948   0.91702   0.00000  Uiso   1.00
O18    O     0.09783   0.55947   0.80017   0.00000  Uiso   1.00
O19    O     0.04081   0.56908   0.84747   0.00000  Uiso   1.00
C20    C     0.71049   0.89202   0.21291   0.00000  Uiso   1.00
Er21   Er    0.60385   0.85700   0.07990   0.00000  Uiso   1.00
Er22   Er    0.63996   0.86760   0.14749   0.00000  Uiso   1.00
C23    C     0.66101   0.93075   0.05861   0.00000  Uiso   1.00
O24    O     0.58580   0.91514   0.17030   0.00000  Uiso   1.00
C25    C     0.69499   0.80339   0.08239   0.00000  Uiso   1.00
C26    C     0.58674   0.79141   0.17144   0.00000  Uiso   1.00
C27    C     0.54576   0.81717   0.03875   0.00000  Uiso   1.00
O28    O     0.73177   0.89241   0.17291   0.00000  Uiso   1.00
O29    O     0.66936   0.87763   0.21731   0.00000  Uiso   1.00
O30    O     0.61120   0.81427   0.19162   0.00000  Uiso   1.00
O31    O     0.57703   0.80217   0.12628   0.00000  Uiso   1.00
O32    O     0.69414   0.82058   0.12394   0.00000  Uiso   1.00
O33    O     0.66133   0.81062   0.05605   0.00000  Uiso   1.00
C34    C     0.55299   0.92624   0.14415   0.00000  Uiso   1.00
O35    O     0.54978   0.90633   0.10492   0.00000  Uiso   1.00
O36    O     0.67082   0.92072   0.10358   0.00000  Uiso   1.00
O37    O     0.63357   0.91047   0.03980   0.00000  Uiso   1.00
O38    O     0.55864   0.80682   0.08242   0.00000  Uiso   1.00
O39    O     0.56630   0.84706   0.01597   0.00000  Uiso   1.00
C40    C     0.92335   0.20022   0.74349   0.00000  Uiso   1.00
Er41   Er    0.86383   0.13501   0.59673   0.00000  Uiso   1.00
Er42   Er    0.87032   0.16567   0.66876   0.00000  Uiso   1.00
C43    C     0.92524   0.07474   0.66065   0.00000  Uiso   1.00
O44    O     0.92253   0.20063   0.63395   0.00000  Uiso   1.00
C45    C     0.80143   0.10454   0.68396   0.00000  Uiso   1.00
C46    C     0.80046   0.21866   0.60575   0.00000  Uiso   1.00
C47    C     0.83143   0.08114   0.54225   0.00000  Uiso   1.00
O48    O     0.94891   0.16610   0.74116   0.00000  Uiso   1.00
O49    O     0.87886   0.19880   0.73752   0.00000  Uiso   1.00
O50    O     0.81972   0.22013   0.64596   0.00000  Uiso   1.00
O51    O     0.81411   0.18861   0.57623   0.00000  Uiso   1.00
O52    O     0.81873   0.13252   0.70581   0.00000  Uiso   1.00
O53    O     0.81282   0.09791   0.63804   0.00000  Uiso   1.00
C54    C     0.93511   0.19700   0.58863   0.00000  Uiso   1.00
O55    O     0.91578   0.17305   0.56296   0.00000  Uiso   1.00
O56    O     0.91660   0.10620   0.69008   0.00000  Uiso   1.00
O57    O     0.91193   0.08040   0.61703   0.00000  Uiso   1.00
O58    O     0.86048   0.10561   0.52690   0.00000  Uiso   1.00
O59    O     0.81791   0.08651   0.58748   0.00000  Uiso   1.00
C60    C     0.29669   0.30504   0.46571   0.00000  Uiso   1.00
Er61   Er    0.42210   0.37095   0.34912   0.00000  Uiso   1.00
Er62   Er    0.36876   0.33234   0.38692   0.00000  Uiso   1.00
C63    C     0.45075   0.32284   0.44579   0.00000  Uiso   1.00
O64    O     0.34008   0.38871   0.42625   0.00000  Uiso   1.00
C65    C     0.42551   0.27624   0.31501   0.00000  Uiso   1.00
C66    C     0.34200   0.38195   0.28865   0.00000  Uiso   1.00
C67    C     0.46095   0.44372   0.33478   0.00000  Uiso   1.00
O68    O     0.31643   0.32443   0.49302   0.00000  Uiso   1.00
O69    O     0.31640   0.29269   0.41983   0.00000  Uiso   1.00
O70    O     0.32807   0.35594   0.32428   0.00000  Uiso   1.00
O71    O     0.37946   0.39512   0.29011   0.00000  Uiso   1.00
O72    O     0.39424   0.27495   0.34801   0.00000  Uiso   1.00
O73    O     0.44469   0.31128   0.30783   0.00000  Uiso   1.00
C74    C     0.35844   0.42373   0.42427   0.00000  Uiso   1.00
O75    O     0.39336   0.42679   0.39546   0.00000  Uiso   1.00
O76    O     0.41246   0.31027   0.44777   0.00000  Uiso   1.00
O77    O     0.46401   0.34679   0.40832   0.00000  Uiso   1.00
O78    O     0.42765   0.43968   0.36513   0.00000  Uiso   1.00
O79    O     0.47343   0.40851   0.31288   0.00000  Uiso   1.00
Ni80   Ni    0.38129   0.75235   0.97470   0.00000  Uiso   1.00
C81    C     0.50885   0.79842   0.01973   0.00000  Uiso   1.00
C82    C     0.49385   0.81191   0.97220   0.00000  Uiso   1.00
C83    C     0.45563   0.79686   0.95816   0.00000  Uiso   1.00
C84    C     0.44783   0.75526   0.03607   0.00000  Uiso   1.00
C85    C     0.48546   0.76957   0.05162   0.00000  Uiso   1.00
H86    H     0.27268   0.72065   0.86178   0.00000  Uiso   1.00
H87    H     0.23739   0.70176   1.01990   0.00000  Uiso   1.00
H88    H     0.30861   0.72479   0.03678   0.00000  Uiso   1.00
H89    H     0.34319   0.74308   0.88237   0.00000  Uiso   1.00
N90    N     0.32878   0.73520   0.96032   0.00000  Uiso   1.00
N91    N     0.43350   0.76934   0.99036   0.00000  Uiso   1.00
H92    H     0.51059   0.83481   0.94697   0.00000  Uiso   1.00
H93    H     0.44311   0.80778   0.92209   0.00000  Uiso   1.00
H94    H     0.42913   0.73382   0.06096   0.00000  Uiso   1.00
H95    H     0.49503   0.75949   0.08905   0.00000  Uiso   1.00
C96    C     0.24900   0.70976   0.93931   0.00000  Uiso   1.00
C97    C     0.25981   0.71081   0.98893   0.00000  Uiso   1.00
C98    C     0.30009   0.72381   0.99864   0.00000  Uiso   1.00
C99    C     0.31946   0.73412   0.91197   0.00000  Uiso   1.00
C100   C     0.27949   0.72142   0.90053   0.00000  Uiso   1.00
Ni101  Ni    0.47203   0.10483   0.20941   0.00000  Uiso   1.00
C102   C     0.43726   0.23698   0.28514   0.00000  Uiso   1.00
C103   C     0.40724   0.20561   0.28592   0.00000  Uiso   1.00
C104   C     0.41794   0.16747   0.26002   0.00000  Uiso   1.00
C105   C     0.48685   0.19030   0.23123   0.00000  Uiso   1.00
C106   C     0.47721   0.22955   0.25643   0.00000  Uiso   1.00
H107   H     0.52891   0.94852   0.23811   0.00000  Uiso   1.00
H108   H     0.50920  -0.00754   0.08391   0.00000  Uiso   1.00
H109   H     0.47771   0.06685   0.11123   0.00000  Uiso   1.00
H110   H     0.49756   0.02309   0.26191   0.00000  Uiso   1.00
N111   N     0.48682   0.04840   0.18779   0.00000  Uiso   1.00
N112   N     0.45733   0.16017   0.23392   0.00000  Uiso   1.00
H113   H     0.37579   0.21013   0.30705   0.00000  Uiso   1.00
H114   H     0.39542   0.14267   0.26217   0.00000  Uiso   1.00
H115   H     0.51834   0.18327   0.21083   0.00000  Uiso   1.00
H116   H     0.50116   0.25290   0.25484   0.00000  Uiso   1.00
C117   C     0.52160   0.96463   0.15899   0.00000  Uiso   1.00
C118   C     0.50535  -0.00209   0.12332   0.00000  Uiso   1.00
C119   C     0.48804   0.04018   0.13867   0.00000  Uiso   1.00
C120   C     0.49910   0.01559   0.22317   0.00000  Uiso   1.00
C121   C     0.51659   0.97333   0.20958   0.00000  Uiso   1.00
Ni122  Ni    0.61503   0.28502   0.55520   0.00000  Uiso   1.00
C123   C     0.75949   0.24781   0.59443   0.00000  Uiso   1.00
C124   C     0.74808   0.25514   0.54464   0.00000  Uiso   1.00
C125   C     0.70450   0.26928   0.53415   0.00000  Uiso   1.00
C126   C     0.68347   0.27213   0.62037   0.00000  Uiso   1.00
C127   C     0.72702   0.25836   0.63261   0.00000  Uiso   1.00
H128   H     0.48737   0.24003   0.48103   0.00000  Uiso   1.00
H129   H     0.48590   0.38056   0.49668   0.00000  Uiso   1.00
H130   H     0.55384   0.36364   0.54156   0.00000  Uiso   1.00
H131   H     0.55589   0.22589   0.52610   0.00000  Uiso   1.00
N132   N     0.55773   0.29409   0.53641   0.00000  Uiso   1.00
N133   N     0.67295   0.27578   0.57184   0.00000  Uiso   1.00
H134   H     0.77208   0.24693   0.51420   0.00000  Uiso   1.00
H135   H     0.69528   0.27262   0.49591   0.00000  Uiso   1.00
H136   H     0.65775   0.27757   0.64967   0.00000  Uiso   1.00
H137   H     0.73435   0.25229   0.67149   0.00000  Uiso   1.00
C138   C     0.48104   0.31140   0.48602   0.00000  Uiso   1.00
C139   C     0.49939   0.34612   0.50487   0.00000  Uiso   1.00
C140   C     0.53789   0.33668   0.53020   0.00000  Uiso   1.00
C141   C     0.53898   0.25940   0.52158   0.00000  Uiso   1.00
C142   C     0.50007   0.26738   0.49628   0.00000  Uiso   1.00
Ni143  Ni    0.72567   0.02250   0.87048   0.00000  Uiso   1.00
C144   C     0.77078   0.07895   0.71465   0.00000  Uiso   1.00
C145   C     0.78473   0.03432   0.72960   0.00000  Uiso   1.00
C146   C     0.76851   0.01617   0.77573   0.00000  Uiso   1.00
C147   C     0.72186   0.08339   0.78902   0.00000  Uiso   1.00
C148   C     0.73725   0.10276   0.74349   0.00000  Uiso   1.00
H149   H     0.74776   0.93061   0.02851   0.00000  Uiso   1.00
H150   H     0.61856   1.00199   0.00964   0.00000  Uiso   1.00
H151   H     0.64674   1.03783   0.93065   0.00000  Uiso   1.00
H152   H     0.77360   0.96782   0.94839   0.00000  Uiso   1.00
N153   N     0.71112   1.00411   0.93573   0.00000  Uiso   1.00
N154   N     0.73918   0.04167   0.80521   0.00000  Uiso   1.00
H155   H     0.81143   0.01552   0.70881   0.00000  Uiso   1.00
H156   H     0.78164  -0.01702   0.78952   0.00000  Uiso   1.00
H157   H     0.69852   0.10281   0.81328   0.00000  Uiso   1.00
H158   H     0.72657   0.13761   0.73349   0.00000  Uiso   1.00
C159   C     0.68129   0.96426   0.02569   0.00000  Uiso   1.00
C160   C     0.65330   0.99592  -0.00151   0.00000  Uiso   1.00
C161   C     0.66902   1.01571   0.95344   0.00000  Uiso   1.00
C162   C     0.74015   0.97639   0.96334   0.00000  Uiso   1.00
C163   C     0.72573   0.95593   0.00910   0.00000  Uiso   1.00
Ni164  Ni    0.77172   0.96691   0.39373   0.00000  Uiso   1.00
C165   C     0.81699   0.04943   0.51060   0.00000  Uiso   1.00
C166   C     0.77724   0.03125   0.52088   0.00000  Uiso   1.00
C167   C     0.76400   0.00415   0.48645   0.00000  Uiso   1.00
C168   C     0.82956   0.01062   0.43531   0.00000  Uiso   1.00
C169   C     0.84361   0.03809   0.46787   0.00000  Uiso   1.00
H170   H     0.66984   0.89343   0.30630   0.00000  Uiso   1.00
H171   H     0.78831   0.92533   0.22124   0.00000  Uiso   1.00
H172   H     0.81151   0.95464   0.29662   0.00000  Uiso   1.00
H173   H     0.69555   0.92388   0.37927   0.00000  Uiso   1.00
N174   N     0.75477   0.94007   0.34113   0.00000  Uiso   1.00
N175   N     0.79009  -0.00482   0.44441   0.00000  Uiso   1.00
H176   H     0.75622   0.03911   0.55393   0.00000  Uiso   1.00
H177   H     0.73254  -0.00854   0.49249   0.00000  Uiso   1.00
H178   H     0.84932   1.00278   0.40147   0.00000  Uiso   1.00
H179   H     0.87480   0.05097   0.45921   0.00000  Uiso   1.00
C180   C     0.72714   0.90717   0.25764   0.00000  Uiso   1.00
C181   C     0.76759   0.92408   0.25552   0.00000  Uiso   1.00
C182   C     0.78085   0.94047   0.29809   0.00000  Uiso   1.00
C183   C     0.71575   0.92325   0.34458   0.00000  Uiso   1.00
C184   C     0.70131   0.90628   0.30304   0.00000  Uiso   1.00
Ni185  Ni    0.27642   0.53116   0.59374   0.00000  Uiso   1.00
C186   C     0.33910   0.45903   0.45694   0.00000  Uiso   1.00
C187   C     0.36523   0.48382   0.48179   0.00000  Uiso   1.00
C188   C     0.34601   0.50837   0.52176   0.00000  Uiso   1.00
C189   C     0.27618   0.48717   0.50968   0.00000  Uiso   1.00
C190   C     0.29386   0.46222   0.47030   0.00000  Uiso   1.00
H191   H     0.26047   0.60590   0.75342   0.00000  Uiso   1.00
H192   H     0.14844   0.54706   0.71205   0.00000  Uiso   1.00
H193   H     0.19105   0.52416   0.63552   0.00000  Uiso   1.00
H194   H     0.30109   0.58102   0.67520   0.00000  Uiso   1.00
N195   N     0.24776   0.55167   0.65178   0.00000  Uiso   1.00
N196   N     0.30235   0.50847   0.53553   0.00000  Uiso   1.00
H197   H     0.40038   0.48167   0.47287   0.00000  Uiso   1.00
H198   H     0.36624   0.52550   0.54306   0.00000  Uiso   1.00
H199   H     0.24177   0.48748   0.52178   0.00000  Uiso   1.00
H200   H     0.27268   0.44349   0.45216   0.00000  Uiso   1.00
C201   C     0.20112   0.57815   0.73933   0.00000  Uiso   1.00
C202   C     0.18196   0.55478   0.70544   0.00000  Uiso   1.00
C203   C     0.20588   0.54199   0.66180   0.00000  Uiso   1.00
C204   C     0.26759   0.57395   0.68393   0.00000  Uiso   1.00
C205   C     0.24460   0.58778   0.72825   0.00000  Uiso   1.00
Ni206  Ni    0.23628   0.45727   0.11128   0.00000  Uiso   1.00
C207   C     0.17079   0.53989   0.97863   0.00000  Uiso   1.00
C208   C     0.16658   0.49413   0.98565   0.00000  Uiso   1.00
C209   C     0.18528   0.46873   0.02670   0.00000  Uiso   1.00
C210   C     0.20982   0.53293   0.05434   0.00000  Uiso   1.00
C211   C     0.19228   0.55912   0.01411   0.00000  Uiso   1.00
H212   H     0.36969   0.42467   0.20159   0.00000  Uiso   1.00
H213   H     0.25528   0.37279   0.27563   0.00000  Uiso   1.00
H214   H     0.21326   0.40258   0.20232   0.00000  Uiso   1.00
H215   H     0.32574   0.45254   0.13052   0.00000  Uiso   1.00
N216   N     0.26772   0.42855   0.16290   0.00000  Uiso   1.00
N217   N     0.20665   0.48860   0.05969   0.00000  Uiso   1.00
H218   H     0.14997   0.47818   0.95931   0.00000  Uiso   1.00
H219   H     0.18335   0.43324   0.03165   0.00000  Uiso   1.00
H220   H     0.22696   0.54777   0.08112   0.00000  Uiso   1.00
H221   H     0.19567   0.59438   0.01088   0.00000  Uiso   1.00
C222   C     0.31581   0.39686   0.24489   0.00000  Uiso   1.00
C223   C     0.27153   0.38987   0.24408   0.00000  Uiso   1.00
C224   C     0.24777   0.40643   0.20249   0.00000  Uiso   1.00
C225   C     0.31084   0.43446   0.16226   0.00000  Uiso   1.00
C226   C     0.33552   0.41893   0.20289   0.00000  Uiso   1.00
Ni227  Ni    0.10981   0.26268   0.52141   0.00000  Uiso   1.00
C228   C     0.25171   0.29433   0.48064   0.00000  Uiso   1.00
C229   C     0.22918   0.30856   0.52500   0.00000  Uiso   1.00
C230   C     0.18611   0.29892   0.53678   0.00000  Uiso   1.00
C231   C     0.18729   0.26171   0.46254   0.00000  Uiso   1.00
C232   C     0.23020   0.27060   0.44932   0.00000  Uiso   1.00
H233   H     0.97613   0.25730   0.63175   0.00000  Uiso   1.00
H234   H     0.98222   0.18541   0.49871   0.00000  Uiso   1.00
H235   H     0.05357   0.21267   0.47324   0.00000  Uiso   1.00
H236   H     0.04729   0.28275   0.60343   0.00000  Uiso   1.00
N237   N     0.05369   0.24864   0.53733   0.00000  Uiso   1.00
N238   N     0.16618   0.27599   0.50549   0.00000  Uiso   1.00
H239   H     0.24452   0.32714   0.55008   0.00000  Uiso   1.00
H240   H     0.16854   0.30964   0.57090   0.00000  Uiso   1.00
H241   H     0.17070   0.24327   0.43858   0.00000  Uiso   1.00
H242   H     0.24627   0.25909   0.41479   0.00000  Uiso   1.00
C243   C     0.97357   0.21871   0.56770   0.00000  Uiso   1.00
C244   C     0.99528   0.20741   0.52193   0.00000  Uiso   1.00
C245   C     0.03573   0.22270   0.50748   0.00000  Uiso   1.00
C246   C     1.03228   0.26200   0.58051   0.00000  Uiso   1.00
C247   C     0.99195   0.24744   0.59641   0.00000  Uiso   1.00
Ni248  Ni    1.00196   0.88366   0.72083   0.00000  Uiso   1.00
C249   C     0.94595   0.02951   0.67672   0.00000  Uiso   1.00
C250   C     0.97612   0.02094   0.71399   0.00000  Uiso   1.00
C251   C     0.99310   0.97657   0.72748   0.00000  Uiso   1.00
C252   C     0.95015   0.94988   0.66956   0.00000  Uiso   1.00
C253   C     0.93292   0.99320   0.65470   0.00000  Uiso   1.00
H254   H     0.12219   0.76162   0.73693   0.00000  Uiso   1.00
H255   H     0.99352   0.72898   0.79103   0.00000  Uiso   1.00
H256   H     0.96239   0.80558   0.76271   0.00000  Uiso   1.00
H257   H     0.08849   0.83702   0.71021   0.00000  Uiso   1.00
N258   N     0.02412   0.82490   0.73573   0.00000  Uiso   1.00
N259   N     0.97978   0.94226   0.70509   0.00000  Uiso   1.00
H260   H     0.98665   0.04805   0.73194   0.00000  Uiso   1.00
H261   H     0.01691   0.96953   0.75563   0.00000  Uiso   1.00
H262   H     0.93982   0.92203   0.65282   0.00000  Uiso   1.00
H263   H     0.90876  -0.00187   0.62673   0.00000  Uiso   1.00
C264   C     0.06041   0.73889   0.76564   0.00000  Uiso   1.00
C265   C     0.01481   0.75141   0.77155   0.00000  Uiso   1.00
C266   C     0.99723   0.79504   0.75632   0.00000  Uiso   1.00
C267   C     0.06794   0.81272   0.72691   0.00000  Uiso   1.00
C268   C     0.08681   0.76978   0.74164   0.00000  Uiso   1.00
Ni269  Ni    0.99252   0.37732   0.76350   0.00000  Uiso   1.00
C270   C     0.04313   0.50862   0.79446   0.00000  Uiso   1.00
C271   C     0.99988   0.50060   0.80902   0.00000  Uiso   1.00
C272   C     0.98515   0.46138   0.79722   0.00000  Uiso   1.00
C273   C     0.05405   0.43840   0.75556   0.00000  Uiso   1.00
C274   C     0.07013   0.47753   0.76634   0.00000  Uiso   1.00
H275   H     0.87566   0.28160   0.75765   0.00000  Uiso   1.00
H276   H     1.00915   0.21640   0.74126   0.00000  Uiso   1.00
H277   H     0.03576   0.28873   0.74828   0.00000  Uiso   1.00
H278   H     0.90534   0.35255   0.76452   0.00000  Uiso   1.00
N279   N     0.97181   0.32391   0.75644   0.00000  Uiso   1.00
N280   N     0.01244   0.43087   0.77183   0.00000  Uiso   1.00
H281   H     0.97807   0.52373   0.83081   0.00000  Uiso   1.00
H282   H     0.95226   0.45450   0.80967   0.00000  Uiso   1.00
H283   H     0.07513   0.41349   0.73554   0.00000  Uiso   1.00
H284   H     0.10378   0.48245   0.75476   0.00000  Uiso   1.00
C285   C     0.94005   0.24300   0.74947   0.00000  Uiso   1.00
C286   C     0.98555   0.24564   0.74668   0.00000  Uiso   1.00
C287   C     1.00079   0.28661   0.75036   0.00000  Uiso   1.00
C288   C     0.92763   0.32239   0.75927   0.00000  Uiso   1.00
C289   C     0.91093   0.28209   0.75567   0.00000  Uiso   1.00
Ni290  Ni    0.88446   0.74076   1.02049   0.00000  Uiso   1.00
C291   C     0.73702   0.77842   0.06473   0.00000  Uiso   1.00
C292   C     0.75199   0.78198   0.01422   0.00000  Uiso   1.00
C293   C     0.79661   0.76930   1.00078   0.00000  Uiso   1.00
C294   C     0.81059   0.74671   0.08506   0.00000  Uiso   1.00
C295   C     0.76665   0.75921   0.10008   0.00000  Uiso   1.00
H296   H     0.02453   0.75991   0.92443   0.00000  Uiso   1.00
H297   H     0.01978   0.63751   1.01687   0.00000  Uiso   1.00
H298   H     0.94537   0.66637   0.04951   0.00000  Uiso   1.00
H299   H     0.94949   0.78629   0.95861   0.00000  Uiso   1.00
N300   N     0.94395   0.72731   1.00528   0.00000  Uiso   1.00
N301   N     0.82495   0.75312   0.03644   0.00000  Uiso   1.00
H302   H     0.73032   0.79744   0.98609   0.00000  Uiso   1.00
H303   H     0.80894   0.77409   0.96228   0.00000  Uiso   1.00
H304   H     0.83384   0.73371   0.11255   0.00000  Uiso   1.00
H305   H     0.75646   0.75626   0.13947   0.00000  Uiso   1.00
C306   C     0.02819   0.69683   0.96862   0.00000  Uiso   1.00
C307   C     0.00602   0.67117   1.00543   0.00000  Uiso   1.00
C308   C     0.96375   0.68725   1.02357   0.00000  Uiso   1.00
C309   C     0.96604   0.75455   0.97265   0.00000  Uiso   1.00
C310   C     1.00878   0.73988   0.95387   0.00000  Uiso   1.00
Ni311  Ni    0.52855   0.62031   0.27367   0.00000  Uiso   1.00
C312   C     0.57055   0.75164   0.19835   0.00000  Uiso   1.00
C313   C     0.55447   0.72032   0.17124   0.00000  Uiso   1.00
C314   C     0.54093   0.68185   0.19584   0.00000  Uiso   1.00
C315   C     0.55903   0.70368   0.27349   0.00000  Uiso   1.00
C316   C     0.57277   0.74308   0.25025   0.00000  Uiso   1.00
H317   H     0.53030   0.45933   0.26910   0.00000  Uiso   1.00
H318   H     0.43714   0.52242   0.37781   0.00000  Uiso   1.00
H319   H     0.46609   0.59380   0.35288   0.00000  Uiso   1.00
H320   H     0.55709   0.53200   0.24659   0.00000  Uiso   1.00
N321   N     0.51305   0.56597   0.29894   0.00000  Uiso   1.00
N322   N     0.54381   0.67402   0.24585   0.00000  Uiso   1.00
H323   H     0.55379   0.72461   0.13108   0.00000  Uiso   1.00
H324   H     0.52905   0.65739   0.17489   0.00000  Uiso   1.00
H325   H     0.56116   0.69644   0.31328   0.00000  Uiso   1.00
H326   H     0.58538   0.76625   0.27240   0.00000  Uiso   1.00
C327   C     0.48128   0.48524   0.32504   0.00000  Uiso   1.00
C328   C     0.46403   0.52343   0.34955   0.00000  Uiso   1.00
C329   C     0.48046   0.56382   0.33572   0.00000  Uiso   1.00
C330   C     0.53155   0.52908   0.27612   0.00000  Uiso   1.00
C331   C     0.51618   0.48806   0.28878   0.00000  Uiso   1.00
loop_
_geom_bond_atom_site_label_1
_geom_bond_atom_site_label_2
_geom_bond_distance
_geom_bond_site_symmetry_2
_ccdc_geom_bond_type
C0     O8      1.218   .     D
C0     O9      1.392   .     S
C0     C96     1.478   .     S
Er1    O11     2.193   .     S
Er1    O13     2.205   .     S
Er1    O15     2.195   .     S
Er1    O17     2.153   .     S
Er1    O18     2.213   .     S
Er1    O19     2.183   .     S
Er2    O4      2.156   .     S
Er2    O9      2.220   .     S
Er2    O10     2.182   .     S
Er2    O12     2.139   .     S
Er2    O16     2.189   .     S
C3     O16     1.271   .     A
C3     O17     1.263   .     A
C3     C306    1.468   .     S
O4     C14     1.270   .     A
C5     O12     1.268   .     A
C5     O13     1.280   .     A
C5     C264    1.478   .     S
C6     O10     1.272   .     A
C6     O11     1.279   .     A
C6     C201    1.485   .     S
C7     O18     1.271   .     A
C7     O19     1.258   .     A
C7     C270    1.478   .     S
C14    O15     1.275   .     A
C14    C207    1.484   .     S
C20    O28     1.218   .     D
C20    O29     1.383   .     S
C20    C180    1.472   .     S
Er21   O31     2.207   .     S
Er21   O33     2.200   .     S
Er21   O35     2.192   .     S
Er21   O37     2.141   .     S
Er21   O38     2.184   .     S
Er21   O39     2.204   .     S
Er22   O24     2.143   .     S
Er22   O29     2.205   .     S
Er22   O30     2.170   .     S
Er22   O32     2.140   .     S
Er22   O36     2.194   .     S
C23    O36     1.273   .     A
C23    O37     1.263   .     A
C23    C159    1.464   .     S
O24    C34     1.266   .     A
C25    O32     1.270   .     A
C25    O33     1.283   .     A
C25    C291    1.477   .     S
C26    O30     1.264   .     A
C26    O31     1.280   .     A
C26    C312    1.479   .     S
C27    O38     1.270   .     A
C27    O39     1.264   .     A
C27    C81     1.474   .     S
C34    O35     1.275   .     A
C34    C117    1.474   .     S
C40    O48     1.218   .     D
C40    O49     1.395   .     S
C40    C285    1.481   .     S
Er41   O51     2.148   .     S
Er41   O53     2.226   .     S
Er41   O55     2.190   .     S
Er41   O57     2.136   .     S
Er41   O58     2.160   .     S
Er41   O59     2.206   .     S
Er42   O44     2.152   .     S
Er42   O49     2.226   .     S
Er42   O50     2.198   .     S
Er42   O52     2.129   .     S
Er42   O56     2.211   .     S
C43    O56     1.279   .     A
C43    O57     1.264   .     A
C43    C249    1.480   .     S
O44    C54     1.262   .     A
C45    O52     1.263   .     A
C45    O53     1.285   .     A
C45    C144    1.463   .     S
C46    O50     1.278   .     A
C46    O51     1.268   .     A
C46    C123    1.477   .     S
C47    O58     1.259   .     A
C47    O59     1.274   .     A
C47    C165    1.466   .     S
C54    O55     1.270   .     A
C54    C243    1.480   .     S
C60    O68     1.218   .     D
C60    O69     1.393   .     S
C60    C228    1.480   .     S
Er61   O71     2.156   .     S
Er61   O73     2.209   .     S
Er61   O75     2.236   .     S
Er61   O77     2.146   .     S
Er61   O78     2.193   .     S
Er61   O79     2.189   .     S
Er62   O64     2.142   .     S
Er62   O69     2.222   .     S
Er62   O70     2.192   .     S
Er62   O72     2.136   .     S
Er62   O76     2.202   .     S
C63    O76     1.279   .     A
C63    O77     1.268   .     A
C63    C138    1.471   .     S
O64    C74     1.262   .     A
C65    O72     1.261   .     A
C65    O73     1.275   .     A
C65    C102    1.482   .     S
C66    O70     1.277   .     A
C66    O71     1.270   .     A
C66    C222    1.483   .     S
C67    O78     1.273   .     A
C67    O79     1.264   .     A
C67    C327    1.474   .     S
C74    O75     1.285   .     A
C74    C186    1.478   .     S
Ni80   N90     1.835   .     S
Ni80   N91     1.835   .     S
C81    C85     1.403   .     A
C81    C82     1.404   1_554 A
C82    C83     1.401   .     A
C82    H92     1.083   .     S
C82    C81     1.404   1_556 A
C83    N91     1.361   .     A
C83    H93     1.082   .     S
C84    C85     1.390   .     A
C84    H94     1.082   .     S
C84    N91     1.355   1_554 A
C85    H95     1.080   .     S
H86    C100    1.082   .     S
H87    C97     1.082   .     S
H88    C98     1.082   1_554 S
H89    C99     1.082   .     S
N90    C98     1.359   .     A
N90    C99     1.358   .     A
N91    C84     1.355   1_556 A
C96    C97     1.404   .     A
C96    C100    1.405   .     A
C97    C98     1.395   .     A
C98    H88     1.082   1_556 S
C99    C100    1.396   .     A
Ni101  N111    1.843   .     S
Ni101  N112    1.843   .     S
C102   C103    1.407   .     A
C102   C106    1.404   .     A
C103   C104    1.390   .     A
C103   H113    1.083   .     S
C104   N112    1.355   .     A
C104   H114    1.082   .     S
C105   C106    1.406   .     A
C105   N112    1.363   .     A
C105   H115    1.081   .     S
C106   H116    1.082   .     S
H107   C121    1.084   .     S
H108   C118    1.083   .     S
H109   C119    1.082   .     S
H110   C120    1.082   .     S
N111   C119    1.363   .     A
N111   C120    1.357   .     A
C117   C121    1.402   .     A
C117   C118    1.405   1_565 A
C118   C119    1.405   .     A
C118   C117    1.405   1_545 A
C120   C121    1.391   1_545 A
C121   C120    1.391   1_565 A
Ni122  N132    1.847   .     S
Ni122  N133    1.848   .     S
C123   C124    1.404   .     A
C123   C127    1.405   .     A
C124   C125    1.394   .     A
C124   H134    1.083   .     S
C125   N133    1.358   .     A
C125   H135    1.082   .     S
C126   C127    1.404   .     A
C126   N133    1.362   .     A
C126   H136    1.081   .     S
C127   H137    1.083   .     S
H128   C142    1.083   .     S
H129   C139    1.084   .     S
H130   C140    1.082   .     S
H131   C141    1.082   .     S
N132   C140    1.358   .     A
N132   C141    1.364   .     A
C138   C139    1.403   .     A
C138   C142    1.401   .     A
C139   C140    1.395   .     A
C141   C142    1.403   .     A
Ni143  N154    1.840   .     S
Ni143  N153    1.840   1_545 S
C144   C145    1.402   .     A
C144   C148    1.402   .     A
C145   C146    1.400   .     A
C145   H155    1.083   .     S
C146   N154    1.361   .     A
C146   H156    1.082   .     S
C147   C148    1.393   .     A
C147   N154    1.358   .     A
C147   H157    1.082   .     S
C148   H158    1.083   .     S
H149   C163    1.083   .     S
H150   C160    1.083   .     S
H151   C161    1.082   .     S
H152   C162    1.082   .     S
N153   C161    1.357   .     A
N153   C162    1.363   .     A
N153   Ni143   1.840   1_565 S
C159   C160    1.400   .     A
C159   C163    1.402   .     A
C160   C161    1.391   1_554 A
C161   C160    1.391   1_556 A
C162   C163    1.402   1_556 A
C163   C162    1.402   1_554 A
Ni164  N174    1.830   .     S
Ni164  N175    1.830   1_565 S
C165   C166    1.404   .     A
C165   C169    1.401   .     A
C166   C167    1.403   .     A
C166   H176    1.084   .     S
C167   N175    1.363   .     A
C167   H177    1.082   .     S
C168   C169    1.385   .     A
C168   N175    1.354   .     A
C168   H178    1.082   1_545 S
C169   H179    1.083   .     S
H170   C184    1.084   .     S
H171   C181    1.082   .     S
H172   C182    1.082   .     S
H173   C183    1.083   .     S
N174   C182    1.359   .     A
N174   C183    1.357   .     A
N175   Ni164   1.830   1_545 S
H178   C168    1.082   1_565 S
C180   C181    1.400   .     A
C180   C184    1.407   .     A
C181   C182    1.394   .     A
C183   C184    1.393   .     A
Ni185  N195    1.848   .     S
Ni185  N196    1.848   .     S
C186   C187    1.406   .     A
C186   C190    1.402   .     A
C187   C188    1.408   .     A
C187   H197    1.083   .     S
C188   N196    1.364   .     A
C188   H198    1.082   .     S
C189   C190    1.390   .     A
C189   N196    1.357   .     A
C189   H199    1.082   .     S
C190   H200    1.083   .     S
H191   C205    1.086   .     S
H192   C202    1.084   .     S
H193   C203    1.084   .     S
H194   C204    1.083   .     S
N195   C203    1.359   .     A
N195   C204    1.363   .     A
C201   C202    1.406   .     A
C201   C205    1.409   .     A
C202   C203    1.394   .     A
C204   C205    1.407   .     A
Ni206  N216    1.846   .     S
Ni206  N217    1.846   .     S
C207   C208    1.407   .     A
C207   C211    1.405   1_556 A
C208   H218    1.082   .     S
C208   C209    1.409   1_556 A
C209   N217    1.364   .     A
C209   H219    1.083   .     S
C209   C208    1.409   1_554 A
C210   C211    1.389   .     A
C210   N217    1.356   .     A
C210   H220    1.082   .     S
C211   H221    1.084   .     S
C211   C207    1.405   1_554 A
H212   C226    1.084   .     S
H213   C223    1.082   .     S
H214   C224    1.082   .     S
H215   C225    1.082   .     S
N216   C224    1.362   .     A
N216   C225    1.358   .     A
C222   C223    1.406   .     A
C222   C226    1.405   .     A
C223   C224    1.405   .     A
C225   C226    1.393   .     A
Ni227  N237    1.841   .     S
Ni227  N238    1.841   .     S
C228   C229    1.406   .     A
C228   C232    1.404   .     A
C229   C230    1.400   .     A
C229   H239    1.084   .     S
C230   N238    1.361   .     A
C230   H240    1.082   .     S
C231   C232    1.394   .     A
C231   N238    1.358   .     A
C231   H241    1.082   .     S
C232   H242    1.082   .     S
H233   C247    1.082   .     S
H234   C244    1.083   .     S
H235   C245    1.082   .     S
H236   C246    1.082   1_455 S
N237   C245    1.361   .     A
N237   C246    1.358   1_455 A
C243   C244    1.403   .     A
C243   C247    1.407   .     A
C244   C245    1.400   1_655 A
C245   C244    1.400   1_455 A
C246   C247    1.395   .     A
C246   H236    1.082   1_655 S
C246   N237    1.358   1_655 A
Ni248  N259    1.846   .     S
Ni248  N258    1.846   1_655 S
C249   C250    1.403   .     A
C249   C253    1.408   1_545 A
C250   H260    1.082   .     S
C250   C251    1.408   1_545 A
C251   N259    1.365   .     A
C251   C250    1.408   1_565 A
C251   H261    1.082   1_655 S
C252   C253    1.390   .     A
C252   N259    1.355   .     A
C252   H262    1.082   .     S
C253   C249    1.408   1_565 A
C253   H263    1.085   1_565 S
H254   C268    1.083   .     S
H255   C265    1.083   1_655 S
H256   C266    1.082   .     S
H257   C267    1.081   .     S
N258   C267    1.357   .     A
N258   Ni248   1.846   1_455 S
N258   C266    1.362   1_455 A
H261   C251    1.082   1_455 S
H263   C253    1.085   1_545 S
C264   C265    1.404   .     A
C264   C268    1.405   .     A
C265   H255    1.083   1_455 S
C265   C266    1.403   1_455 A
C266   N258    1.362   1_655 A
C266   C265    1.403   1_655 A
C267   C268    1.394   .     A
Ni269  N279    1.844   .     S
Ni269  N280    1.844   1_655 S
C270   C274    1.404   .     A
C270   C271    1.403   1_455 A
C271   C272    1.394   .     A
C271   H281    1.083   .     S
C271   C270    1.403   1_655 A
C272   H282    1.082   .     S
C272   N280    1.358   1_655 A
C273   C274    1.402   .     A
C273   N280    1.362   .     A
C273   H283    1.081   .     S
C274   H284    1.083   .     S
H275   C289    1.083   .     S
H276   C286    1.082   .     S
H277   C287    1.081   1_455 S
H278   C288    1.081   .     S
N279   C287    1.359   .     A
N279   C288    1.360   .     A
N280   Ni269   1.844   1_455 S
N280   C272    1.358   1_455 A
C285   C286    1.406   .     A
C285   C289    1.403   .     A
C286   C287    1.397   .     A
C287   H277    1.081   1_655 S
C288   C289    1.399   .     A
Ni290  N300    1.843   .     S
Ni290  N301    1.843   1_556 S
C291   C292    1.403   .     A
C291   C295    1.405   .     A
C292   C293    1.403   1_554 A
C292   H302    1.083   1_554 S
C293   H303    1.082   .     S
C293   C292    1.403   1_556 A
C293   N301    1.363   1_556 A
C294   C295    1.393   .     A
C294   N301    1.357   .     A
C294   H304    1.082   .     S
C295   H305    1.083   .     S
H296   C310    1.083   1_455 S
H297   C307    1.083   .     S
H298   C308    1.082   1_554 S
H299   C309    1.082   .     S
N300   C308    1.358   .     A
N300   C309    1.362   .     A
N301   Ni290   1.843   1_554 S
N301   C293    1.363   1_554 A
H302   C292    1.083   1_556 S
C306   C307    1.401   .     A
C306   C310    1.402   1_455 A
C307   C308    1.394   1_455 A
C308   H298    1.082   1_556 S
C308   C307    1.394   1_655 A
C309   C310    1.401   .     A
C310   H296    1.083   1_655 S
C310   C306    1.402   1_655 A
Ni311  N321    1.838   .     S
Ni311  N322    1.839   .     S
C312   C313    1.403   .     A
C312   C316    1.406   .     A
C313   C314    1.390   .     A
C313   H323    1.080   .     S
C314   N322    1.356   .     A
C314   H324    1.082   .     S
C315   C316    1.403   .     A
C315   N322    1.361   .     A
C315   H325    1.081   .     S
C316   H326    1.083   .     S
H317   C331    1.083   .     S
H318   C328    1.083   .     S
H319   C329    1.081   .     S
H320   C330    1.082   .     S
N321   C329    1.359   .     A
N321   C330    1.359   .     A
C327   C328    1.404   .     A
C327   C331    1.402   .     A
C328   C329    1.397   .     A
C330   C331    1.395   .     A
