data_lcy+N106+E8
_audit_creation_date              2025-01-21
_audit_creation_method            'Materials Studio'
_symmetry_space_group_name_H-M    'P1'
_symmetry_Int_Tables_number       1
_symmetry_cell_setting            triclinic
loop_
_symmetry_equiv_pos_as_xyz
  x,y,z
_cell_length_a                    21.7787
_cell_length_b                    22.0895
_cell_length_c                    23.2721
_cell_angle_alpha                 100.1245
_cell_angle_beta                  98.9037
_cell_angle_gamma                 92.4479
loop_
_atom_site_label
_atom_site_type_symbol
_atom_site_fract_x
_atom_site_fract_y
_atom_site_fract_z
_atom_site_U_iso_or_equiv
_atom_site_adp_type
_atom_site_occupancy
Y0     Y     0.09834   0.63110   0.78680   0.00000  Uiso   1.00
Y1     Y     0.14165   0.55410   0.88445   0.00000  Uiso   1.00
O2     O     0.14762   0.55952   0.73706   0.00000  Uiso   1.00
O3     O     0.08800   0.52699   0.79061   0.00000  Uiso   1.00
C4     C     0.19500   0.51264   0.98149   0.00000  Uiso   1.00
O5     O     0.04948   0.49969   0.86268   0.00000  Uiso   1.00
O6     O     0.11291   0.71212   0.74241   0.00000  Uiso   1.00
O7     O     0.02355   0.66758   0.72465   0.00000  Uiso   1.00
O8     O     0.21105   0.54082   0.81703   0.00000  Uiso   1.00
O9     O     0.14653   0.65496   0.88236   0.00000  Uiso   1.00
O10    O     0.19722   0.67546   0.81674   0.00000  Uiso   1.00
O11    O     0.01983   0.63786   0.83863   0.00000  Uiso   1.00
C12    C     0.19872   0.54094   0.76065   0.00000  Uiso   1.00
O13    O     0.06482   0.60799   0.92149   0.00000  Uiso   1.00
C14    C     0.04025   0.49612   0.80958   0.00000  Uiso   1.00
O15    O     0.16772   0.47749   0.93495   0.00000  Uiso   1.00
O16    O     0.19852   0.56840   0.97607   0.00000  Uiso   1.00
C17    C     0.05750   0.71280   0.71792   0.00000  Uiso   1.00
C18    C     0.01880   0.62898   0.89120   0.00000  Uiso   1.00
C19    C     0.20139   0.67686   0.86918   0.00000  Uiso   1.00
Y20    Y     0.66391   0.82373   0.09736   0.00000  Uiso   1.00
Y21    Y     0.57153   0.92142   0.14272   0.00000  Uiso   1.00
O22    O     0.61750   0.77395   0.15688   0.00000  Uiso   1.00
O23    O     0.55723   0.82263   0.09195   0.00000  Uiso   1.00
C24    C     0.51612   1.01940   0.19184   0.00000  Uiso   1.00
O25    O     0.50716   0.89230   0.05553   0.00000  Uiso   1.00
O26    O     0.76333   0.80785   0.09049   0.00000  Uiso   1.00
O27    O     0.69636   0.73792   0.04371   0.00000  Uiso   1.00
O28    O     0.58014   0.85652   0.20929   0.00000  Uiso   1.00
O29    O     0.67543   0.91991   0.15267   0.00000  Uiso   1.00
O30    O     0.71721   0.84748   0.19066   0.00000  Uiso   1.00
O31    O     0.64534   0.87876   0.02442   0.00000  Uiso   1.00
C32    C     0.59524   0.80013   0.20230   0.00000  Uiso   1.00
O33    O     0.61192   0.96389   0.07445   0.00000  Uiso   1.00
C34    C     0.51506   0.83783   0.04683   0.00000  Uiso   1.00
O35    O     0.48742   0.96774   0.16949   0.00000  Uiso   1.00
O36    O     0.57404   1.01878   0.19318   0.00000  Uiso   1.00
C37    C     0.75372   0.75567   0.05771   0.00000  Uiso   1.00
C38    C     0.63019   0.93445   0.02846   0.00000  Uiso   1.00
C39    C     0.70526   0.90058   0.20219   0.00000  Uiso   1.00
Y40    Y     0.76642   0.08306   0.67117   0.00000  Uiso   1.00
Y41    Y     0.87171   0.12725   0.60550   0.00000  Uiso   1.00
O42    O     0.71144   0.14297   0.61914   0.00000  Uiso   1.00
O43    O     0.77582   0.07910   0.57266   0.00000  Uiso   1.00
C44    C     0.96820   0.18872   0.57617   0.00000  Uiso   1.00
O45    O     0.85476   0.04105   0.53729   0.00000  Uiso   1.00
O46    O     0.74433   0.07521   0.76006   0.00000  Uiso   1.00
O47    O     0.68488   0.02313   0.68648   0.00000  Uiso   1.00
O48    O     0.79482   0.19625   0.60037   0.00000  Uiso   1.00
O49    O     0.86062   0.13659   0.69996   0.00000  Uiso   1.00
O50    O     0.78085   0.17938   0.72585   0.00000  Uiso   1.00
O51    O     0.82447   0.00285   0.66066   0.00000  Uiso   1.00
C52    C     0.73586   0.18956   0.60274   0.00000  Uiso   1.00
O53    O     0.91207   0.04292   0.63808   0.00000  Uiso   1.00
C54    C     0.79893   0.03349   0.53440   0.00000  Uiso   1.00
O55    O     0.91741   0.17269   0.54149   0.00000  Uiso   1.00
O56    O     0.96793   0.17532   0.62654   0.00000  Uiso   1.00
C57    C     0.69794   0.03718   0.74235   0.00000  Uiso   1.00
C58    C     0.88021  -0.00177   0.65100   0.00000  Uiso   1.00
C59    C     0.83556   0.18913   0.72476   0.00000  Uiso   1.00
Y60    Y     0.44612   0.47259   0.40437   0.00000  Uiso   1.00
Y61    Y     0.32932   0.38218   0.40208   0.00000  Uiso   1.00
O62    O     0.49198   0.40957   0.45837   0.00000  Uiso   1.00
O63    O     0.42282   0.36814   0.37414   0.00000  Uiso   1.00
C64    C     0.22688   0.33552   0.43525   0.00000  Uiso   1.00
O65    O     0.34046   0.32505   0.31508   0.00000  Uiso   1.00
O66    O     0.49393   0.56611   0.41257   0.00000  Uiso   1.00
O67    O     0.53086   0.49071   0.36375   0.00000  Uiso   1.00
O68    O     0.40450   0.36463   0.47815   0.00000  Uiso   1.00
O69    O     0.35286   0.48330   0.43191   0.00000  Uiso   1.00
O70    O     0.43244   0.50847   0.49956   0.00000  Uiso   1.00
O71    O     0.38252   0.48252   0.32157   0.00000  Uiso   1.00
C72    C     0.46453   0.37450   0.48622   0.00000  Uiso   1.00
O73    O     0.29413   0.42754   0.32451   0.00000  Uiso   1.00
C74    C     0.39686   0.33123   0.32085   0.00000  Uiso   1.00
O75    O     0.27500   0.30643   0.43097   0.00000  Uiso   1.00
O76    O     0.23157   0.38798   0.42184   0.00000  Uiso   1.00
C77    C     0.53296   0.54853   0.37964   0.00000  Uiso   1.00
C78    C     0.32585   0.46380   0.30093   0.00000  Uiso   1.00
C79    C     0.37613   0.50122   0.49094   0.00000  Uiso   1.00
C80    C     0.36360   0.75091   0.99031   0.00000  Uiso   1.00
C81    C     0.36479   0.73673   0.92917   0.00000  Uiso   1.00
N82    N     0.41788   0.75024   0.90839   0.00000  Uiso   1.00
C83    C     0.46953   0.77859   0.94576   0.00000  Uiso   1.00
C84    C     0.46785   0.79440   0.00676   0.00000  Uiso   1.00
N85    N     0.41476   0.77987   1.02735   0.00000  Uiso   1.00
N86    N     0.31029   0.73835   1.01104   0.00000  Uiso   1.00
C87    C     0.25775   0.71284   0.97339   0.00000  Uiso   1.00
C88    C     0.25819   0.70033   0.91195   0.00000  Uiso   1.00
N89    N     0.31210   0.71224   0.89156   0.00000  Uiso   1.00
H90    H     0.51052   0.79063   0.92786   0.00000  Uiso   1.00
H91    H     0.21585   0.70381   0.99116   0.00000  Uiso   1.00
C92    C     0.42661   0.18211   0.23745   0.00000  Uiso   1.00
C93    C     0.49168   0.18239   0.25066   0.00000  Uiso   1.00
N94    N     0.52527   0.23506   0.28000   0.00000  Uiso   1.00
C95    C     0.49646   0.28688   0.29847   0.00000  Uiso   1.00
C96    C     0.43108   0.28581   0.28704   0.00000  Uiso   1.00
N97    N     0.39815   0.23353   0.25587   0.00000  Uiso   1.00
N98    N     0.39242   0.12923   0.21065   0.00000  Uiso   1.00
C99    C     0.42019   0.07603   0.19664   0.00000  Uiso   1.00
C100   C     0.48521   0.07563   0.21013   0.00000  Uiso   1.00
N101   N     0.51967   0.12918   0.23625   0.00000  Uiso   1.00
H102   H     0.52403   0.32710   0.32457   0.00000  Uiso   1.00
H103   H     0.39172   0.03465   0.17473   0.00000  Uiso   1.00
C104   C     0.58921   0.26371   0.56799   0.00000  Uiso   1.00
C105   C     0.61026   0.31743   0.55085   0.00000  Uiso   1.00
N106   N     0.67224   0.32987   0.55261   0.00000  Uiso   1.00
C107   C     0.71433   0.29030   0.57004   0.00000  Uiso   1.00
C108   C     0.69332   0.23556   0.58591   0.00000  Uiso   1.00
N109   N     0.63107   0.22411   0.58509   0.00000  Uiso   1.00
N110   N     0.52695   0.25037   0.56416   0.00000  Uiso   1.00
C111   C     0.48466   0.28776   0.54234   0.00000  Uiso   1.00
C112   C     0.50577   0.34044   0.52298   0.00000  Uiso   1.00
N113   N     0.56829   0.35411   0.52868   0.00000  Uiso   1.00
H114   H     0.76337   0.30122   0.57067   0.00000  Uiso   1.00
H115   H     0.43539   0.27466   0.53721   0.00000  Uiso   1.00
C116   C     0.65281   1.02079   0.88478   0.00000  Uiso   1.00
C117   C     0.63673   0.95724   0.87552   0.00000  Uiso   1.00
N118   N     0.63284   0.92270   0.82055   0.00000  Uiso   1.00
C119   C     0.64640  -0.05150   0.77451   0.00000  Uiso   1.00
C120   C     0.66657   0.01123   0.78469   0.00000  Uiso   1.00
N121   N     0.66860   1.04588   0.83948   0.00000  Uiso   1.00
N122   N     0.65630   1.05561   0.93945   0.00000  Uiso   1.00
C123   C     0.64605   1.02943  -0.01387   0.00000  Uiso   1.00
C124   C     0.63418   0.96520   0.97798   0.00000  Uiso   1.00
N125   N     0.62883   0.93073   0.92258   0.00000  Uiso   1.00
H126   H     0.64577  -0.08049   0.73176   0.00000  Uiso   1.00
H127   H     0.64967   1.05808   0.02945   0.00000  Uiso   1.00
C128   C     0.72915   0.99556   0.37900   0.00000  Uiso   1.00
C129   C     0.73947   0.93282   0.36577   0.00000  Uiso   1.00
N130   N     0.75932   0.90242   0.41038   0.00000  Uiso   1.00
C131   C     0.77131   0.93251   0.46768   0.00000  Uiso   1.00
C132   C     0.76299  -0.00418   0.48099   0.00000  Uiso   1.00
N133   N     0.74156   1.02556   0.43609   0.00000  Uiso   1.00
N134   N     0.71234   1.02666   0.33419   0.00000  Uiso   1.00
C135   C     0.70529   0.99780   0.27659   0.00000  Uiso   1.00
C136   C     0.71578   0.93510   0.26322   0.00000  Uiso   1.00
N137   N     0.73238   0.90411   0.30838   0.00000  Uiso   1.00
H138   H     0.79102   0.90833   0.50209   0.00000  Uiso   1.00
H139   H     0.69238   1.02361   0.24172   0.00000  Uiso   1.00
C140   C     0.32270   0.51262   0.63700   0.00000  Uiso   1.00
C141   C     0.25833   0.51392   0.61963   0.00000  Uiso   1.00
N142   N     0.23443   0.51219   0.56199   0.00000  Uiso   1.00
C143   C     0.27201   0.50914   0.52051   0.00000  Uiso   1.00
C144   C     0.33662   0.50811   0.53718   0.00000  Uiso   1.00
N145   N     0.36079   0.50968   0.59539   0.00000  Uiso   1.00
N146   N     0.34570   0.51533   0.69547   0.00000  Uiso   1.00
C147   C     0.30725   0.52053   0.73710   0.00000  Uiso   1.00
C148   C     0.24286   0.52348   0.71944   0.00000  Uiso   1.00
N149   N     0.22066   0.51954   0.66082   0.00000  Uiso   1.00
H150   H     0.25145   0.50758   0.47479   0.00000  Uiso   1.00
H151   H     0.32693   0.52491   0.78340   0.00000  Uiso   1.00
C152   C     0.26184   0.51922   0.13910   0.00000  Uiso   1.00
C153   C     0.24911   0.45828   0.14637   0.00000  Uiso   1.00
N154   N     0.22062   0.41576   0.09922   0.00000  Uiso   1.00
C155   C     0.20408   0.43135   0.04517   0.00000  Uiso   1.00
C156   C     0.21658   0.49239   0.03780   0.00000  Uiso   1.00
N157   N     0.24498   0.53485   0.08531   0.00000  Uiso   1.00
N158   N     0.29156   0.56151   0.18577   0.00000  Uiso   1.00
C159   C     0.31010   0.54537   0.23917   0.00000  Uiso   1.00
C160   C     0.29791   0.48423   0.24656   0.00000  Uiso   1.00
N161   N     0.26728   0.44219   0.19985   0.00000  Uiso   1.00
H162   H     0.18072   0.39670   1.00864   0.00000  Uiso   1.00
H163   H     0.33499   0.57960   0.27531   0.00000  Uiso   1.00
C164   C     0.12725   0.26064   0.52130   0.00000  Uiso   1.00
C165   C     0.06724   0.26917   0.49295   0.00000  Uiso   1.00
N166   N     0.06076   0.29991   0.44697   0.00000  Uiso   1.00
C167   C     0.11162   0.32223   0.42788   0.00000  Uiso   1.00
C168   C     0.17152   0.31182   0.45486   0.00000  Uiso   1.00
N169   N     0.17797   0.28139   0.50117   0.00000  Uiso   1.00
N170   N     0.13382   0.23206   0.56870   0.00000  Uiso   1.00
C171   C     0.08310   0.21081   0.58862   0.00000  Uiso   1.00
C172   C     1.02305   0.21701   0.55893   0.00000  Uiso   1.00
N173   N     0.01652   0.24628   0.51173   0.00000  Uiso   1.00
H174   H     0.10547   0.34691   0.39133   0.00000  Uiso   1.00
H175   H     1.08961   0.18743   0.62606   0.00000  Uiso   1.00
C176   C     0.99067   0.87481   0.66631   0.00000  Uiso   1.00
C177   C     0.94939   0.82497   0.66894   0.00000  Uiso   1.00
N178   N     0.88745   0.83182   0.66250   0.00000  Uiso   1.00
C179   C     0.86471   0.88650   0.65483   0.00000  Uiso   1.00
C180   C     0.90575   0.93760   0.65427   0.00000  Uiso   1.00
N181   N     0.96808   0.93015   0.65912   0.00000  Uiso   1.00
N182   N     0.05287   0.86773   0.67407   0.00000  Uiso   1.00
C183   C     0.07558   0.81395   0.68604   0.00000  Uiso   1.00
C184   C     0.03433   0.76507   0.69138   0.00000  Uiso   1.00
N185   N     0.97206   0.77175   0.68178   0.00000  Uiso   1.00
H186   H     0.81484   0.89014   0.65034   0.00000  Uiso   1.00
H187   H     0.12547   0.81041   0.69393   0.00000  Uiso   1.00
C188   C     0.91841   0.37050   0.77953   0.00000  Uiso   1.00
C189   C     0.93586   0.33176   0.73104   0.00000  Uiso   1.00
N190   N    -0.02044   0.35359   0.70237   0.00000  Uiso   1.00
C191   C     0.00855   0.41127   0.72177   0.00000  Uiso   1.00
C192   C    -0.00546   0.44808   0.77326   0.00000  Uiso   1.00
N193   N     0.94866   0.42687   0.79983   0.00000  Uiso   1.00
N194   N     0.87512   0.34940   0.80865   0.00000  Uiso   1.00
C195   C     0.84876   0.29090   0.79200   0.00000  Uiso   1.00
C196   C     0.86765   0.25091   0.74510   0.00000  Uiso   1.00
N197   N     0.91039   0.27252   0.71500   0.00000  Uiso   1.00
H198   H     0.04586   0.42592   0.70036   0.00000  Uiso   1.00
H199   H     0.81381   0.27538   0.81563   0.00000  Uiso   1.00
C200   C     0.85366   0.67470   0.95871   0.00000  Uiso   1.00
C201   C     0.91128   0.68034   0.99696   0.00000  Uiso   1.00
N202   N     0.91431   0.70542   0.05497   0.00000  Uiso   1.00
C203   C     0.86288   0.72636   0.07612   0.00000  Uiso   1.00
C204   C     0.80552   0.72196   0.03776   0.00000  Uiso   1.00
N205   N     0.80212   0.69548   0.97987   0.00000  Uiso   1.00
N206   N     0.85120   0.65260   0.90018   0.00000  Uiso   1.00
C207   C     0.90361   0.63666   0.87803   0.00000  Uiso   1.00
C208   C     0.96149   0.64279   0.91598   0.00000  Uiso   1.00
N209   N     0.96374   0.66388   0.97495   0.00000  Uiso   1.00
H210   H     0.86709   0.74812   0.12218   0.00000  Uiso   1.00
H211   H     0.90021   0.61978   0.83097   0.00000  Uiso   1.00
C212   C     0.59947   0.66854   0.28084   0.00000  Uiso   1.00
C213   C     0.57189   0.69133   0.33010   0.00000  Uiso   1.00
N214   N     0.55567   0.75048   0.33869   0.00000  Uiso   1.00
C215   C     0.56426   0.78748   0.29929   0.00000  Uiso   1.00
C216   C     0.58869   0.76367   0.24821   0.00000  Uiso   1.00
N217   N     0.60688   0.70501   0.24100   0.00000  Uiso   1.00
N218   N     0.61438   0.60901   0.27142   0.00000  Uiso   1.00
C219   C     0.60023   0.57029   0.30758   0.00000  Uiso   1.00
C220   C     0.56821   0.59180   0.35421   0.00000  Uiso   1.00
N221   N     0.55623   0.65233   0.36519   0.00000  Uiso   1.00
H222   H     0.55087   0.83438   0.30719   0.00000  Uiso   1.00
H223   H     0.60939   0.52220   0.29706   0.00000  Uiso   1.00
loop_
_geom_bond_atom_site_label_1
_geom_bond_atom_site_label_2
_geom_bond_distance
_geom_bond_site_symmetry_2
_ccdc_geom_bond_type
Y0     O2      2.209   .     S
Y0     O3      2.320   .     S
Y0     O6      2.252   .     S
Y0     O7      2.278   .     S
Y0     O9      2.268   .     S
Y0     O10     2.280   .     S
Y0     O11     2.236   .     S
Y1     O3      2.277   .     S
Y1     O5      2.235   .     S
Y1     O8      2.333   .     S
Y1     O9      2.235   .     S
Y1     O13     2.284   .     S
Y1     O15     2.267   .     S
Y1     O16     2.257   .     S
O2     C12     1.280   .     A
O3     C14     1.389   .     S
C4     O15     1.263   .     A
C4     O16     1.260   .     A
C4     C156    1.474   1_556 S
O5     C14     1.209   .     D
O6     C17     1.254   .     A
O7     C17     1.264   .     A
O8     C12     1.298   .     A
O9     C19     1.368   .     S
O10    C19     1.205   .     D
O11    C18     1.276   .     A
C12    C148    1.476   .     S
O13    C18     1.286   .     A
C14    C192    1.472   .     S
C17    C184    1.474   .     S
C18    C208    1.475   1_455 S
C19    C88     1.474   .     S
Y20    O22     2.241   .     S
Y20    O23     2.306   .     S
Y20    O26     2.234   .     S
Y20    O27     2.282   .     S
Y20    O29     2.264   .     S
Y20    O30     2.259   .     S
Y20    O31     2.253   .     S
Y21    O23     2.275   .     S
Y21    O25     2.254   .     S
Y21    O28     2.281   .     S
Y21    O29     2.241   .     S
Y21    O33     2.250   .     S
Y21    O35     2.254   .     S
Y21    O36     2.256   .     S
O22    C32     1.286   .     A
O23    C34     1.382   .     S
C24    O35     1.262   .     A
C24    O36     1.258   .     A
C24    C100    1.467   1_565 S
O25    C34     1.209   .     D
O26    C37     1.255   .     A
O27    C37     1.268   .     A
O28    C32     1.291   .     A
O29    C39     1.378   .     S
O30    C39     1.205   .     D
O31    C38     1.279   .     A
C32    C216    1.466   .     S
O33    C38     1.279   .     A
C34    C84     1.467   .     S
C37    C204    1.468   .     S
C38    C124    1.468   1_554 S
C39    C136    1.468   .     S
Y40    O42     2.214   .     S
Y40    O43     2.320   .     S
Y40    O46     2.229   .     S
Y40    O47     2.279   .     S
Y40    O49     2.268   .     S
Y40    O50     2.261   .     S
Y40    O51     2.221   .     S
Y41    O43     2.260   .     S
Y41    O45     2.231   .     S
Y41    O48     2.316   .     S
Y41    O49     2.223   .     S
Y41    O53     2.291   .     S
Y41    O55     2.262   .     S
Y41    O56     2.251   .     S
O42    C52     1.281   .     A
O43    C54     1.388   .     S
C44    O55     1.261   .     A
C44    O56     1.259   .     A
C44    C172    1.467   .     S
O45    C54     1.210   .     D
O46    C57     1.254   .     A
O47    C57     1.266   .     A
O48    C52     1.297   .     A
O49    C59     1.376   .     S
O50    C59     1.207   .     D
O51    C58     1.273   .     A
C52    C108    1.467   .     S
O53    C58     1.287   .     A
C54    C132    1.459   .     S
C57    C120    1.463   .     S
C58    C180    1.482   1_545 S
C59    C196    1.471   .     S
Y60    O62     2.205   .     S
Y60    O63     2.301   .     S
Y60    O66     2.237   .     S
Y60    O67     2.251   .     S
Y60    O69     2.232   .     S
Y60    O70     2.287   .     S
Y60    O71     2.242   .     S
Y61    O63     2.249   .     S
Y61    O65     2.243   .     S
Y61    O68     2.316   .     S
Y61    O69     2.232   .     S
Y61    O73     2.264   .     S
Y61    O75     2.264   .     S
Y61    O76     2.251   .     S
O62    C72     1.279   .     A
O63    C74     1.382   .     S
C64    O75     1.261   .     A
C64    O76     1.256   .     A
C64    C168    1.462   .     S
O65    C74     1.214   .     D
O66    C77     1.259   .     A
O67    C77     1.262   .     A
O68    C72     1.295   .     A
O69    C79     1.370   .     S
O70    C79     1.211   .     D
O71    C78     1.276   .     A
C72    C112    1.466   .     S
O73    C78     1.282   .     A
C74    C96     1.466   .     S
C77    C220    1.459   .     S
C78    C160    1.470   .     S
C79    C144    1.470   .     S
C80    C81     1.407   .     A
C80    N85     1.357   .     A
C80    N86     1.360   .     A
C81    N82     1.362   .     A
C81    N89     1.358   .     A
N82    C83     1.364   .     A
C83    H90     1.084   .     S
C83    C84     1.408   1_556 A
C84    C83     1.408   1_554 A
C84    N85     1.365   1_554 A
N85    C84     1.365   1_556 A
N86    C87     1.362   .     A
C87    C88     1.409   .     A
C87    H91     1.083   .     S
C88    N89     1.365   .     A
C92    C93     1.402   .     A
C92    N97     1.352   .     A
C92    N98     1.354   .     A
C93    N94     1.360   .     A
C93    N101    1.361   .     A
N94    C95     1.364   .     A
C95    C96     1.406   .     A
C95    H102    1.082   .     S
C96    N97     1.359   .     A
N98    C99     1.356   .     A
C99    C100    1.403   .     A
C99    H103    1.081   .     S
C100   N101    1.365   .     A
C100   C24     1.467   1_545 S
C104   C105    1.398   .     A
C104   N109    1.354   .     A
C104   N110    1.361   .     A
C105   N106    1.359   .     A
C105   N113    1.350   .     A
N106   C107    1.359   .     A
C107   C108    1.404   .     A
C107   H114    1.082   .     S
C108   N109    1.365   .     A
N110   C111    1.362   .     A
C111   C112    1.404   .     A
C111   H115    1.082   .     S
C112   N113    1.363   .     A
C116   C117    1.403   .     A
C116   N121    1.356   .     A
C116   N122    1.355   .     A
C117   N118    1.358   .     A
C117   N125    1.359   .     A
N118   C119    1.363   1_565 A
C119   C120    1.403   .     A
C119   H126    1.082   .     S
C119   N118    1.363   1_545 A
C120   N121    1.360   1_545 A
N121   C120    1.360   1_565 A
N122   C123    1.360   1_556 A
C123   H127    1.082   .     S
C123   N122    1.360   1_554 A
C123   C124    1.405   1_554 A
C124   N125    1.362   .     A
C124   C123    1.405   1_556 A
C124   C38     1.468   1_556 S
C128   C129    1.401   .     A
C128   N133    1.357   .     A
C128   N134    1.360   .     A
C129   N130    1.359   .     A
C129   N137    1.356   .     A
N130   C131    1.361   .     A
C131   H138    1.084   .     S
C131   C132    1.404   1_565 A
C132   C131    1.404   1_545 A
C132   N133    1.363   1_545 A
N133   C132    1.363   1_565 A
N134   C135    1.362   .     A
C135   C136    1.402   .     A
C135   H139    1.081   .     S
C136   N137    1.364   .     A
C140   C141    1.401   .     A
C140   N145    1.364   .     A
C140   N146    1.365   .     A
C141   N142    1.355   .     A
C141   N149    1.348   .     A
N142   C143    1.354   .     A
C143   C144    1.403   .     A
C143   H150    1.083   .     S
C144   N145    1.369   .     A
N146   C147    1.369   .     A
C147   C148    1.406   .     A
C147   H151    1.082   .     S
C148   N149    1.361   .     A
C152   C153    1.407   .     A
C152   N157    1.357   .     A
C152   N158    1.358   .     A
C153   N154    1.360   .     A
C153   N161    1.359   .     A
N154   C155    1.361   .     A
C155   C156    1.409   .     A
C155   H162    1.082   1_554 S
C156   N157    1.363   .     A
C156   C4      1.474   1_554 S
N158   C159    1.359   .     A
C159   C160    1.410   .     A
C159   H163    1.083   .     S
C160   N161    1.363   .     A
H162   C155    1.082   1_556 S
C164   C165    1.406   .     A
C164   N169    1.357   .     A
C164   N170    1.356   .     A
C165   N166    1.358   .     A
C165   N173    1.359   .     A
N166   C167    1.360   .     A
C167   C168    1.404   .     A
C167   H174    1.083   .     S
C168   N169    1.360   .     A
N170   C171    1.359   .     A
C171   C172    1.405   1_455 A
C171   H175    1.083   1_455 S
C172   C171    1.405   1_655 A
C172   N173    1.362   1_655 A
N173   C172    1.362   1_455 A
H175   C171    1.083   1_655 S
C176   C177    1.407   .     A
C176   N181    1.365   .     A
C176   N182    1.358   1_655 A
C177   N178    1.352   .     A
C177   N185    1.357   .     A
N178   C179    1.355   .     A
C179   C180    1.413   .     A
C179   H186    1.083   .     S
C180   N181    1.364   .     A
C180   C58     1.482   1_565 S
N182   C183    1.363   .     A
N182   C176    1.358   1_455 A
C183   C184    1.410   .     A
C183   H187    1.082   .     S
C184   N185    1.359   1_455 A
N185   C184    1.359   1_655 A
C188   C189    1.404   .     A
C188   N193    1.354   .     A
C188   N194    1.355   .     A
C189   N197    1.365   .     A
C189   N190    1.362   1_655 A
N190   C191    1.366   .     A
N190   C189    1.362   1_455 A
C191   C192    1.408   .     A
C191   H198    1.083   .     S
C192   N193    1.361   1_455 A
N193   C192    1.361   1_655 A
N194   C195    1.357   .     A
C195   C196    1.404   .     A
C195   H199    1.083   .     S
C196   N197    1.366   .     A
C200   C201    1.409   .     A
C200   N205    1.360   .     A
C200   N206    1.356   .     A
C201   N209    1.361   .     A
C201   N202    1.356   1_556 A
N202   C203    1.359   .     A
N202   C201    1.356   1_554 A
C203   C204    1.407   .     A
C203   H210    1.083   .     S
C204   N205    1.361   1_554 A
N205   C204    1.361   1_556 A
N206   C207    1.358   .     A
C207   C208    1.409   .     A
C207   H211    1.083   .     S
C208   N209    1.362   .     A
C208   C18     1.475   1_655 S
C212   C213    1.402   .     A
C212   N217    1.354   .     A
C212   N218    1.356   .     A
C213   N214    1.357   .     A
C213   N221    1.354   .     A
N214   C215    1.359   .     A
C215   C216    1.404   .     A
C215   H222    1.081   .     S
C216   N217    1.361   .     A
N218   C219    1.358   .     A
C219   C220    1.404   .     A
C219   H223    1.082   .     S
C220   N221    1.361   .     A
