data_lcy+N205+E14
_audit_creation_date              2025-01-21
_audit_creation_method            'Materials Studio'
_symmetry_space_group_name_H-M    'P1'
_symmetry_Int_Tables_number       1
_symmetry_cell_setting            triclinic
loop_
_symmetry_equiv_pos_as_xyz
  x,y,z
_cell_length_a                    19.9889
_cell_length_b                    20.2231
_cell_length_c                    19.6847
_cell_angle_alpha                 116.0358
_cell_angle_beta                  94.6136
_cell_angle_gamma                 94.0613
loop_
_atom_site_label
_atom_site_type_symbol
_atom_site_fract_x
_atom_site_fract_y
_atom_site_fract_z
_atom_site_U_iso_or_equiv
_atom_site_adp_type
_atom_site_occupancy
Y0     Y     0.16605   0.53788   0.86915   0.00000  Uiso   1.00
Y1     Y     0.06848   0.67998   0.82041   0.00000  Uiso   1.00
C2     C     0.96008   0.70517   0.89909   0.00000  Uiso   1.00
C3     C     0.02993   0.52034   0.79181   0.00000  Uiso   1.00
C4     C     0.18513   0.44646   0.93233   0.00000  Uiso   1.00
C5     C     0.22589   0.51673   0.74332   0.00000  Uiso   1.00
C6     C     0.20555   0.69912   0.93120   0.00000  Uiso   1.00
C7     C     1.06964   0.77132   0.75316   0.00000  Uiso   1.00
O8     O     0.02045   0.72257   0.93105   0.00000  Uiso   1.00
O9     O     0.95688   0.67507   0.82784   0.00000  Uiso   1.00
O10    O     0.05656   0.54917   0.86005   0.00000  Uiso   1.00
O11    O     0.03978   0.55575   0.75296   0.00000  Uiso   1.00
O12    O     0.22555   0.50307   0.94697   0.00000  Uiso   1.00
O13    O     0.13582   0.43526   0.88304   0.00000  Uiso   1.00
O14    O     0.16557   0.49440   0.74202   0.00000  Uiso   1.00
O15    O     0.25609   0.55075   0.81033   0.00000  Uiso   1.00
O16    O     0.17920   0.70813   0.87494   0.00000  Uiso   1.00
O17    O     0.17391   0.65642   0.95203   0.00000  Uiso   1.00
O18    O     1.05523   0.70187   0.71605   0.00000  Uiso   1.00
O19    O     0.08500   0.79176   0.82310   0.00000  Uiso   1.00
Y20    Y     0.53467   0.86331   0.23538   0.00000  Uiso   1.00
Y21    Y     0.62745   0.90515   0.08016   0.00000  Uiso   1.00
C22    C     0.72299   0.81067   0.03705   0.00000  Uiso   1.00
C23    C     0.67191   0.94154   0.24844   0.00000  Uiso   1.00
C24    C     0.51740   0.79002   0.32041   0.00000  Uiso   1.00
C25    C     0.48983   0.99502   0.26252   0.00000  Uiso   1.00
C26    C     0.48421   0.81339   0.07009   0.00000  Uiso   1.00
C27    C     0.64205   0.98310  -0.00124   0.00000  Uiso   1.00
O28    O     0.66374   0.79564   0.00258   0.00000  Uiso   1.00
O29    O     0.72978   0.87007   0.09725   0.00000  Uiso   1.00
O30    O     0.64460   0.87596   0.22596   0.00000  Uiso   1.00
O31    O     0.66201   0.97386   0.20630   0.00000  Uiso   1.00
O32    O     0.46908   0.80392   0.28519   0.00000  Uiso   1.00
O33    O     0.57381   0.81924   0.31682   0.00000  Uiso   1.00
O34    O     0.54461   0.98875   0.29402   0.00000  Uiso   1.00
O35    O     0.45480   0.93322   0.22270   0.00000  Uiso   1.00
O36    O     0.51428   0.86901   0.06612   0.00000  Uiso   1.00
O37    O     0.51200   0.78661   0.11118   0.00000  Uiso   1.00
O38    O     0.66611   1.00724   0.06769   0.00000  Uiso   1.00
O39    O     0.60645   0.92133   0.97433   0.00000  Uiso   1.00
Y40    Y     0.94105   0.17375   0.54153   0.00000  Uiso   1.00
Y41    Y     0.86568   0.08163   0.71530   0.00000  Uiso   1.00
C42    C     0.96281   0.99193   0.70306   0.00000  Uiso   1.00
C43    C     0.83771   0.05018   0.53910   0.00000  Uiso   1.00
C44    C     0.06837   0.19705   0.51617   0.00000  Uiso   1.00
C45    C     0.83986   0.24153   0.51486   0.00000  Uiso   1.00
C46    C     0.92762   0.22026   0.71341   0.00000  Uiso   1.00
C47    C     0.77188   1.07043   0.80143   0.00000  Uiso   1.00
O48    O     0.94070   0.00597   0.64970   0.00000  Uiso   1.00
O49    O     0.93615   1.02485   0.76272   0.00000  Uiso   1.00
O50    O     0.90110   0.06842   0.54537   0.00000  Uiso   1.00
O51    O     0.81120   0.04978   0.59656   0.00000  Uiso   1.00
O52    O     0.04316   0.23829   0.57478   0.00000  Uiso   1.00
O53    O     1.02671   0.14316   0.46831   0.00000  Uiso   1.00
O54    O     0.85496   0.18046   0.46608   0.00000  Uiso   1.00
O55    O     0.88179   0.27164   0.57456   0.00000  Uiso   1.00
O56    O     0.90220   0.20333   0.76112   0.00000  Uiso   1.00
O57    O     0.93419   0.16742   0.65013   0.00000  Uiso   1.00
O58    O     0.76420   1.03533   0.72948   0.00000  Uiso   1.00
O59    O     0.82731   0.11137   0.82789   0.00000  Uiso   1.00
Y60    Y     0.44953   0.35221   0.46152   0.00000  Uiso   1.00
Y61    Y     0.34971   0.40543   0.29109   0.00000  Uiso   1.00
C62    C     0.42954   0.53251   0.33249   0.00000  Uiso   1.00
C63    C     0.34602   0.45386   0.46696   0.00000  Uiso   1.00
C64    C     0.57280   0.32474   0.49628   0.00000  Uiso   1.00
C65    C     0.33905   0.28256   0.48194   0.00000  Uiso   1.00
C66    C     0.42681   0.27971   0.28989   0.00000  Uiso   1.00
C67    C     0.27295   0.37406   0.16124   0.00000  Uiso   1.00
O68    O     0.45210   0.47596   0.33364   0.00000  Uiso   1.00
O69    O     0.36830   0.52229   0.30703   0.00000  Uiso   1.00
O70    O     0.41001   0.45618   0.46974   0.00000  Uiso   1.00
O71    O     0.30880   0.43060   0.40280   0.00000  Uiso   1.00
O72    O     0.52685   0.27645   0.45008   0.00000  Uiso   1.00
O73    O     0.55362   0.38832   0.52961   0.00000  Uiso   1.00
O74    O     0.35765   0.26724   0.41744   0.00000  Uiso   1.00
O75    O     0.38054   0.33054   0.53670   0.00000  Uiso   1.00
O76    O     0.37753   0.28915   0.25217   0.00000  Uiso   1.00
O77    O     0.45892   0.33666   0.34434   0.00000  Uiso   1.00
O78    O     0.24876   0.39340   0.22399   0.00000  Uiso   1.00
O79    O     0.33560   0.37016   0.16638   0.00000  Uiso   1.00
C80    C     0.38277   0.80499   0.97964   0.00000  Uiso   1.00
C81    C     0.41298   0.78443   0.03364   0.00000  Uiso   1.00
C82    C     0.37391   0.73724   0.05432   0.00000  Uiso   1.00
C83    C     0.30666   0.71103   0.02191   0.00000  Uiso   1.00
C84    C     0.27645   0.73084   0.96734   0.00000  Uiso   1.00
C85    C     0.31536   0.77815   0.94652   0.00000  Uiso   1.00
H86    H     0.41127   0.84144   0.96254   0.00000  Uiso   1.00
H87    H     0.39503   0.72094   0.09644   0.00000  Uiso   1.00
H88    H     0.27845   0.67460   0.03939   0.00000  Uiso   1.00
H89    H     0.29377   0.79432   0.90461   0.00000  Uiso   1.00
C90    C     0.50897   0.19163   0.28705   0.00000  Uiso   1.00
C91    C     0.44173   0.20468   0.27732   0.00000  Uiso   1.00
C92    C     0.38964   0.14658   0.25827   0.00000  Uiso   1.00
C93    C     0.40466   0.07799   0.25349   0.00000  Uiso   1.00
C94    C     0.47190   0.06663   0.26741   0.00000  Uiso   1.00
C95    C     0.52388   0.12340   0.28217   0.00000  Uiso   1.00
H96    H     0.55012   0.23485   0.29974   0.00000  Uiso   1.00
H97    H     0.33740   0.15516   0.24956   0.00000  Uiso   1.00
H98    H     0.36386   0.03432   0.24019   0.00000  Uiso   1.00
H99    H     0.57635   0.11457   0.28898   0.00000  Uiso   1.00
C100   C     0.76060   0.33925   0.55790   0.00000  Uiso   1.00
C101   C     0.77463   0.26824   0.50709   0.00000  Uiso   1.00
C102   C     0.72230   0.21724   0.45499   0.00000  Uiso   1.00
C103   C     0.65696   0.23585   0.45445   0.00000  Uiso   1.00
C104   C     0.64233   0.30675   0.50408   0.00000  Uiso   1.00
C105   C     0.69477   0.35881   0.55548   0.00000  Uiso   1.00
H106   H     0.80009   0.37891   0.59982   0.00000  Uiso   1.00
H107   H     0.73109   0.16146   0.41675   0.00000  Uiso   1.00
H108   H     0.61758   0.19444   0.41504   0.00000  Uiso   1.00
H109   H     0.68478   0.41385   0.59411   0.00000  Uiso   1.00
C110   C     0.67233   1.00195   0.82138   0.00000  Uiso   1.00
C111   C     0.72456   1.06087   0.85094   0.00000  Uiso   1.00
C112   C     0.73716   1.10475   0.93009   0.00000  Uiso   1.00
C113   C     0.70543   1.08318   0.97929   0.00000  Uiso   1.00
C114   C     0.65953   1.01836   0.94969   0.00000  Uiso   1.00
C115   C     0.63963   0.98122   0.87027   0.00000  Uiso   1.00
H116   H     0.66003   0.96888   0.76047   0.00000  Uiso   1.00
H117   H     0.77535   1.15243   0.95426   0.00000  Uiso   1.00
H118   H     0.72032   1.11406   1.04003   0.00000  Uiso   1.00
H119   H     0.60263   0.93252   0.84586   0.00000  Uiso   1.00
C120   C     0.82294   1.02358   0.40061   0.00000  Uiso   1.00
C121   C     0.79424   1.02976   0.46603   0.00000  Uiso   1.00
C122   C     0.72408   1.01074   0.45931   0.00000  Uiso   1.00
C123   C     0.68410   0.98451   0.38886   0.00000  Uiso   1.00
C124   C     0.71274   0.97908   0.32401   0.00000  Uiso   1.00
C125   C     0.78234   0.99999   0.33065   0.00000  Uiso   1.00
H126   H     0.87696   1.03650   0.40353   0.00000  Uiso   1.00
H127   H     0.70021   1.01390   0.50801   0.00000  Uiso   1.00
H128   H     0.63093   0.96692   0.38478   0.00000  Uiso   1.00
H129   H     0.80571   0.99458   0.28096   0.00000  Uiso   1.00
C130   C     0.35520   0.50608   0.60922   0.00000  Uiso   1.00
C131   C     0.31479   0.47241   0.53791   0.00000  Uiso   1.00
C132   C     0.24511   0.45484   0.53521   0.00000  Uiso   1.00
C133   C     0.21652   0.46970   0.60219   0.00000  Uiso   1.00
C134   C     0.25690   0.50300   0.67337   0.00000  Uiso   1.00
C135   C     0.32644   0.52152   0.67640   0.00000  Uiso   1.00
H136   H     0.40901   0.52068   0.61298   0.00000  Uiso   1.00
H137   H     0.21283   0.42837   0.48125   0.00000  Uiso   1.00
H138   H     0.16291   0.45411   0.59821   0.00000  Uiso   1.00
H139   H     0.35855   0.54724   0.73051   0.00000  Uiso   1.00
C140   C     0.24773   0.36325  -0.03208   0.00000  Uiso   1.00
C141   C     0.19224   0.40300  -0.02541   0.00000  Uiso   1.00
C142   C     0.15316   0.41577   0.03416   0.00000  Uiso   1.00
C143   C     0.17478   0.39763   0.09247   0.00000  Uiso   1.00
C144   C     0.23539   0.36616   0.09054   0.00000  Uiso   1.00
C145   C     0.26843   0.34335   0.02506   0.00000  Uiso   1.00
H146   H     0.27843   0.35316  -0.07787   0.00000  Uiso   1.00
H147   H     0.11020   0.44682   0.03979   0.00000  Uiso   1.00
H148   H     0.14852   0.41570   0.14246   0.00000  Uiso   1.00
H149   H     0.31464   0.31785   0.02183   0.00000  Uiso   1.00
C150   C     0.25074   0.28079   0.56342   0.00000  Uiso   1.00
C151   C     0.27316   0.25234   0.49159   0.00000  Uiso   1.00
C152   C     0.22903   0.20122   0.42772   0.00000  Uiso   1.00
C153   C     0.16258   0.18086   0.43545   0.00000  Uiso   1.00
C154   C     0.13944   0.21228   0.50695   0.00000  Uiso   1.00
C155   C     0.18423   0.26167   0.57100   0.00000  Uiso   1.00
H156   H     0.28356   0.32031   0.61337   0.00000  Uiso   1.00
H157   H     0.24512   0.17867   0.37151   0.00000  Uiso   1.00
H158   H     0.12892   0.14266   0.38531   0.00000  Uiso   1.00
H159   H     0.16760   0.28639   0.62702   0.00000  Uiso   1.00
C160   C     0.99236   0.86490   0.64262   0.00000  Uiso   1.00
C161   C     1.01014   0.93870   0.69660   0.00000  Uiso   1.00
C162   C     0.06118   0.95635   0.75703   0.00000  Uiso   1.00
C163   C     0.08780   0.90006   0.76925   0.00000  Uiso   1.00
C164   C     1.06227   0.82557   0.72232   0.00000  Uiso   1.00
C165   C     1.01808   0.80813   0.65579   0.00000  Uiso   1.00
H166   H     0.95191   0.84894   0.59631   0.00000  Uiso   1.00
H167   H     0.07581   1.01353   0.79871   0.00000  Uiso   1.00
H168   H     0.12312   0.91512   0.81999   0.00000  Uiso   1.00
H169   H     0.99871   0.75113   0.61817   0.00000  Uiso   1.00
C170   C     0.93164   0.42555   0.76589   0.00000  Uiso   1.00
C171   C    -0.00088   0.44238   0.75816   0.00000  Uiso   1.00
C172   C     0.04154   0.38618   0.73781   0.00000  Uiso   1.00
C173   C     0.01772   0.31517   0.72590   0.00000  Uiso   1.00
C174   C     0.95028   0.29748   0.73072   0.00000  Uiso   1.00
C175   C     0.90705   0.35310   0.75187   0.00000  Uiso   1.00
H176   H     0.89873   0.46886   0.78514   0.00000  Uiso   1.00
H177   H     0.09456   0.39720   0.73611   0.00000  Uiso   1.00
H178   H     0.05272   0.27401   0.71421   0.00000  Uiso   1.00
H179   H     0.85472   0.34062   0.75735   0.00000  Uiso   1.00
C180   C     0.84462   0.79116   0.05101   0.00000  Uiso   1.00
C181   C     0.78079   0.76953   1.00670   0.00000  Uiso   1.00
C182   C     0.77591   0.71862   0.92947   0.00000  Uiso   1.00
C183   C     0.83433   0.69442   0.89596   0.00000  Uiso   1.00
C184   C     0.89873   0.72063   0.93872   0.00000  Uiso   1.00
C185   C     0.90308   0.76670   0.01731   0.00000  Uiso   1.00
H186   H     0.84974   0.83026   0.11092   0.00000  Uiso   1.00
H187   H     0.72750   0.70137   0.89396   0.00000  Uiso   1.00
H188   H     0.82921   0.65791   0.83543   0.00000  Uiso   1.00
H189   H     0.95191   0.78693   0.05162   0.00000  Uiso   1.00
C190   C     0.45166   0.73134   0.38666   0.00000  Uiso   1.00
C191   C     0.50945   0.73669   0.35262   0.00000  Uiso   1.00
C192   C     0.55191   0.68021   0.33373   0.00000  Uiso   1.00
C193   C     0.53073   0.61417   0.33677   0.00000  Uiso   1.00
C194   C     0.46782   0.60563   0.36079   0.00000  Uiso   1.00
C195   C     0.43186   0.66661   0.39294   0.00000  Uiso   1.00
H196   H     0.41869   0.77459   0.40203   0.00000  Uiso   1.00
H197   H     0.59701   0.68335   0.30759   0.00000  Uiso   1.00
H198   H     0.55926   0.56731   0.31199   0.00000  Uiso   1.00
H199   H     0.38222   0.66434   0.41242   0.00000  Uiso   1.00
loop_
_geom_bond_atom_site_label_1
_geom_bond_atom_site_label_2
_geom_bond_distance
_geom_bond_site_symmetry_2
_ccdc_geom_bond_type
Y0     O10     2.218   .     S
Y0     O12     2.243   .     S
Y0     O13     2.257   .     S
Y0     O14     2.258   .     S
Y0     O15     2.276   .     S
Y0     O17     2.215   .     S
Y1     O8      2.284   .     S
Y1     O11     2.269   .     S
Y1     O16     2.297   .     S
Y1     O19     2.238   .     S
Y1     O9      2.245   1_455 S
Y1     O18     2.283   1_455 S
C2     O9      1.254   .     A
C2     C184    1.485   .     S
C2     O8      1.265   1_655 A
C3     O10     1.258   .     A
C3     O11     1.273   .     A
C3     C171    1.478   .     S
C4     O12     1.260   .     A
C4     O13     1.259   .     A
C4     C141    1.458   1_556 S
C5     O14     1.251   .     A
C5     O15     1.263   .     A
C5     C134    1.478   .     S
C6     O16     1.278   .     A
C6     O17     1.261   .     A
C6     C84     1.495   .     S
C7     O18     1.264   .     A
C7     C164    1.479   .     S
C7     O19     1.255   1_655 A
O8     C2      1.265   1_455 A
O9     Y1      2.245   1_655 S
O18    Y1      2.283   1_655 S
O19    C7      1.255   1_455 A
Y20    O30     2.226   .     S
Y20    O32     2.267   .     S
Y20    O33     2.264   .     S
Y20    O34     2.265   .     S
Y20    O35     2.275   .     S
Y20    O37     2.232   .     S
Y21    O28     2.280   .     S
Y21    O29     2.259   .     S
Y21    O31     2.266   .     S
Y21    O36     2.284   .     S
Y21    O38     2.274   .     S
Y21    O39     2.258   1_554 S
C22    O28     1.263   .     A
C22    O29     1.252   .     A
C22    C181    1.481   1_554 S
C23    O30     1.263   .     A
C23    O31     1.274   .     A
C23    C124    1.477   .     S
C24    O32     1.263   .     A
C24    O33     1.257   .     A
C24    C191    1.477   .     S
C25    O34     1.257   .     A
C25    O35     1.263   .     A
C25    C94     1.480   1_565 S
C26    O36     1.273   .     A
C26    O37     1.269   .     A
C26    C81     1.495   .     S
C27    O38     1.261   .     A
C27    O39     1.261   1_554 A
C27    C114    1.479   1_554 S
O39    Y21     2.258   1_556 S
O39    C27     1.261   1_556 A
Y40    O50     2.256   .     S
Y40    O53     2.271   .     S
Y40    O54     2.233   .     S
Y40    O55     2.252   .     S
Y40    O57     2.211   .     S
Y40    O52     2.226   1_655 S
Y41    O48     2.271   .     S
Y41    O51     2.288   .     S
Y41    O56     2.257   .     S
Y41    O59     2.243   .     S
Y41    O49     2.265   1_545 S
Y41    O58     2.263   1_545 S
C42    O49     1.253   .     A
C42    C161    1.454   .     S
C42    O48     1.259   1_565 A
C43    O50     1.275   .     A
C43    O51     1.290   .     A
C43    C121    1.490   1_545 S
C44    O52     1.261   .     A
C44    C154    1.475   .     S
C44    O53     1.270   1_455 A
C45    O54     1.264   .     A
C45    O55     1.263   .     A
C45    C101    1.468   .     S
C46    O56     1.262   .     A
C46    O57     1.260   .     A
C46    C174    1.472   .     S
C47    O58     1.265   .     A
C47    C111    1.473   .     S
C47    O59     1.258   1_565 A
O48    C42     1.259   1_545 A
O49    Y41     2.265   1_565 S
O52    Y40     2.226   1_455 S
O53    C44     1.270   1_655 A
O58    Y41     2.263   1_565 S
O59    C47     1.258   1_545 A
Y60    O70     2.242   .     S
Y60    O72     2.208   .     S
Y60    O73     2.266   .     S
Y60    O74     2.251   .     S
Y60    O75     2.257   .     S
Y60    O77     2.213   .     S
Y61    O68     2.277   .     S
Y61    O69     2.242   .     S
Y61    O71     2.265   .     S
Y61    O76     2.258   .     S
Y61    O78     2.257   .     S
Y61    O79     2.222   .     S
C62    O68     1.267   .     A
C62    O69     1.252   .     A
C62    C194    1.460   .     S
C63    O70     1.272   .     A
C63    O71     1.284   .     A
C63    C131    1.481   .     S
C64    O72     1.258   .     A
C64    O73     1.265   .     A
C64    C104    1.474   .     S
C65    O74     1.262   .     A
C65    O75     1.271   .     A
C65    C151    1.474   .     S
C66    O76     1.262   .     A
C66    O77     1.260   .     A
C66    C91     1.483   .     S
C67    O78     1.269   .     A
C67    O79     1.259   .     A
C67    C144    1.465   .     S
C80    C85     1.407   .     A
C80    H86     1.082   .     S
C80    C81     1.410   1_556 A
C81    C82     1.405   .     A
C81    C80     1.410   1_554 A
C82    C83     1.400   .     A
C82    H87     1.085   .     S
C83    H88     1.084   .     S
C83    C84     1.410   1_554 A
C84    C85     1.406   .     A
C84    C83     1.410   1_556 A
C85    H89     1.083   .     S
C90    C91     1.402   .     A
C90    C95     1.396   .     A
C90    H96     1.085   .     S
C91    C92     1.408   .     A
C92    C93     1.404   .     A
C92    H97     1.083   .     S
C93    C94     1.405   .     A
C93    H98     1.084   .     S
C94    C95     1.404   .     A
C94    C25     1.480   1_545 S
C95    H99     1.084   .     S
C100   C101    1.408   .     A
C100   C105    1.404   .     A
C100   H106    1.082   .     S
C101   C102    1.398   .     A
C102   C103    1.385   .     A
C102   H107    1.083   .     S
C103   C104    1.404   .     A
C103   H108    1.077   .     S
C104   C105    1.403   .     A
C105   H109    1.082   .     S
C110   C111    1.402   .     A
C110   C115    1.395   .     A
C110   H116    1.082   .     S
C111   C112    1.404   .     A
C112   C113    1.400   .     A
C112   H117    1.083   .     S
C113   C114    1.405   .     A
C113   H118    1.081   .     S
C114   C115    1.412   .     A
C114   C27     1.479   1_556 S
C115   H119    1.083   .     S
C120   C121    1.411   .     A
C120   C125    1.404   .     A
C120   H126    1.084   .     S
C121   C122    1.408   .     A
C121   C43     1.490   1_565 S
C122   C123    1.400   .     A
C122   H127    1.084   .     S
C123   C124    1.405   .     A
C123   H128    1.082   .     S
C124   C125    1.404   .     A
C125   H129    1.083   .     S
C130   C131    1.410   .     A
C130   C135    1.401   .     A
C130   H136    1.083   .     S
C131   C132    1.404   .     A
C132   C133    1.397   .     A
C132   H137    1.083   .     S
C133   C134    1.407   .     A
C133   H138    1.082   .     S
C134   C135    1.403   .     A
C135   H139    1.083   .     S
C140   C141    1.397   .     A
C140   C145    1.394   .     A
C140   H146    1.084   .     S
C141   C142    1.401   .     A
C141   C4      1.458   1_554 S
C142   C143    1.397   .     A
C142   H147    1.084   .     S
C143   C144    1.403   .     A
C143   H148    1.083   .     S
C144   C145    1.403   .     A
C145   H149    1.082   .     S
C150   C151    1.398   .     A
C150   C155    1.396   .     A
C150   H156    1.081   .     S
C151   C152    1.407   .     A
C152   C153    1.402   .     A
C152   H157    1.082   .     S
C153   C154    1.400   .     A
C153   H158    1.084   .     S
C154   C155    1.405   .     A
C155   H159    1.084   .     S
C160   C161    1.398   .     A
C160   C165    1.405   .     A
C160   H166    1.084   .     S
C161   C162    1.401   1_655 A
C162   C163    1.394   .     A
C162   H167    1.085   .     S
C162   C161    1.401   1_455 A
C163   H168    1.085   .     S
C163   C164    1.406   1_455 A
C164   C165    1.409   .     A
C164   C163    1.406   1_655 A
C165   H169    1.081   .     S
C170   C175    1.409   .     A
C170   H176    1.083   .     S
C170   C171    1.404   1_655 A
C171   C172    1.401   .     A
C171   C170    1.404   1_455 A
C172   C173    1.391   .     A
C172   H177    1.074   .     S
C173   H178    1.084   .     S
C173   C174    1.391   1_455 A
C174   C175    1.404   .     A
C174   C173    1.391   1_655 A
C175   H179    1.084   .     S
C180   C185    1.403   .     A
C180   H186    1.085   .     S
C180   C181    1.409   1_554 A
C181   C182    1.403   .     A
C181   C180    1.409   1_556 A
C181   C22     1.481   1_556 S
C182   C183    1.400   .     A
C182   H187    1.084   .     S
C183   C184    1.409   .     A
C183   H188    1.083   .     S
C184   C185    1.404   1_556 A
C185   H189    1.082   .     S
C185   C184    1.404   1_554 A
C190   C191    1.402   .     A
C190   C195    1.401   .     A
C190   H196    1.083   .     S
C191   C192    1.407   .     A
C192   C193    1.400   .     A
C192   H197    1.085   .     S
C193   C194    1.404   .     A
C193   H198    1.085   .     S
C194   C195    1.397   .     A
C195   H199    1.097   .     S
