data_lcy+N155+E191
_audit_creation_date              2025-01-21
_audit_creation_method            'Materials Studio'
_symmetry_space_group_name_H-M    'P1'
_symmetry_Int_Tables_number       1
_symmetry_cell_setting            triclinic
loop_
_symmetry_equiv_pos_as_xyz
  x,y,z
_cell_length_a                    28.3309
_cell_length_b                    29.3332
_cell_length_c                    29.9147
_cell_angle_alpha                 92.0928
_cell_angle_beta                  98.3678
_cell_angle_gamma                 97.5817
loop_
_atom_site_label
_atom_site_type_symbol
_atom_site_fract_x
_atom_site_fract_y
_atom_site_fract_z
_atom_site_U_iso_or_equiv
_atom_site_adp_type
_atom_site_occupancy
C0     C     0.19613   0.57533   0.80126   0.00000  Uiso   1.00
Ho1    Ho    0.15088   0.59802   0.86645   0.00000  Uiso   1.00
C2     C     0.03276   0.65285   0.98130   0.00000  Uiso   1.00
Ho3    Ho    0.09000   0.62468   0.92937   0.00000  Uiso   1.00
O4     O     0.15474   0.55494   0.80676   0.00000  Uiso   1.00
O5     O     0.21480   0.60621   0.83256   0.00000  Uiso   1.00
O6     O     0.10464   0.54839   0.81765   0.00000  Uiso   1.00
O7     O     0.08223   0.56561   0.88211   0.00000  Uiso   1.00
C8     C     0.07107   0.54268   0.83943   0.00000  Uiso   1.00
C9     C     0.16508   0.68879   0.94209   0.00000  Uiso   1.00
O10    O     0.17117   0.55037   0.92024   0.00000  Uiso   1.00
O11    O     0.12709   0.57807   0.97283   0.00000  Uiso   1.00
O12    O     0.07602   0.67291   0.98209   0.00000  Uiso   1.00
O13    O     0.02156   0.61731   0.95410   0.00000  Uiso   1.00
O14    O     0.12882   0.69219   0.95928   0.00000  Uiso   1.00
O15    O     0.16474   0.64472   0.92448   0.00000  Uiso   1.00
O16    O     0.06517   0.66611   0.87375   0.00000  Uiso   1.00
O17    O     0.11859   0.65161   0.82725   0.00000  Uiso   1.00
C18    C     0.08484   0.67354   0.83802   0.00000  Uiso   1.00
C19    C     0.15670   0.55116   0.96017   0.00000  Uiso   1.00
C20    C     0.60429   0.79105   0.19981   0.00000  Uiso   1.00
Ho21   Ho    0.63341   0.85884   0.15245   0.00000  Uiso   1.00
C22    C     0.68039   0.98008   0.02073   0.00000  Uiso   1.00
Ho23   Ho    0.66101   0.92614   0.08388   0.00000  Uiso   1.00
O24    O     0.57947   0.80255   0.16386   0.00000  Uiso   1.00
O25    O     0.64428   0.81742   0.21180   0.00000  Uiso   1.00
O26    O     0.57087   0.81551   0.11227   0.00000  Uiso   1.00
O27    O     0.59626   0.88320   0.09383   0.00000  Uiso   1.00
C28    C     0.56582   0.84243   0.08227   0.00000  Uiso   1.00
C29    C     0.69700   0.95095   0.17090   0.00000  Uiso   1.00
O30    O     0.59247   0.91446   0.17351   0.00000  Uiso   1.00
O31    O     0.61453   0.96600   0.12041   0.00000  Uiso   1.00
O32    O     0.71089   0.97654   0.05619   0.00000  Uiso   1.00
O33    O     0.63915   0.95630   0.02052   0.00000  Uiso   1.00
O34    O     0.67950   0.97647   0.14403   0.00000  Uiso   1.00
O35    O     0.69649   0.90866   0.15016   0.00000  Uiso   1.00
O36    O     0.69341   0.86796   0.05951   0.00000  Uiso   1.00
O37    O     0.67594   0.81780   0.11385   0.00000  Uiso   1.00
C38    C     0.69766   0.83004   0.07984   0.00000  Uiso   1.00
C39    C     0.59038   0.95350   0.15348   0.00000  Uiso   1.00
C40    C     0.80955   0.21895   0.57145   0.00000  Uiso   1.00
Ho41   Ho    0.86494   0.16028   0.60382   0.00000  Uiso   1.00
C42    C     0.96095   0.01824   0.67394   0.00000  Uiso   1.00
Ho43   Ho    0.92011   0.08622   0.64165   0.00000  Uiso   1.00
O44    O     0.80324   0.17630   0.55819   0.00000  Uiso   1.00
O45    O     0.84699   0.23092   0.60105   0.00000  Uiso   1.00
O46    O     0.80642   0.12710   0.55247   0.00000  Uiso   1.00
O47    O     0.85908   0.08861   0.58892   0.00000  Uiso   1.00
C48    C     0.81996   0.08907   0.55473   0.00000  Uiso   1.00
C49    C     0.92864   0.16619   0.69322   0.00000  Uiso   1.00
O50    O     0.91823   0.16309   0.55638   0.00000  Uiso   1.00
O51    O     0.96359   0.10899   0.58912   0.00000  Uiso   1.00
O52    O     0.97853   0.06025   0.68509   0.00000  Uiso   1.00
O53    O     0.92276   0.01309   0.64486   0.00000  Uiso   1.00
O54    O     0.92586   0.12851   0.70795   0.00000  Uiso   1.00
O55    O     0.93047   0.16192   0.64869   0.00000  Uiso   1.00
O56    O     0.86160   0.07981   0.68347   0.00000  Uiso   1.00
O57    O     0.82289   0.14059   0.65879   0.00000  Uiso   1.00
C58    C     0.82828   0.10627   0.68450   0.00000  Uiso   1.00
C59    C     0.95500   0.13981   0.55947   0.00000  Uiso   1.00
C60    C     0.40456   0.26930   0.28999   0.00000  Uiso   1.00
Ho61   Ho    0.37797   0.33327   0.33972   0.00000  Uiso   1.00
C62    C     0.33379   0.46302   0.45782   0.00000  Uiso   1.00
Ho63   Ho    0.35362   0.40238   0.40055   0.00000  Uiso   1.00
O64    O     0.42531   0.28260   0.33006   0.00000  Uiso   1.00
O65    O     0.36912   0.29077   0.27580   0.00000  Uiso   1.00
O66    O     0.43697   0.30156   0.37513   0.00000  Uiso   1.00
O67    O     0.40710   0.35603   0.40916   0.00000  Uiso   1.00
C68    C     0.44028   0.32462   0.41077   0.00000  Uiso   1.00
C69    C     0.30612   0.41726   0.32243   0.00000  Uiso   1.00
O70    O     0.42673   0.39266   0.32087   0.00000  Uiso   1.00
O71    O     0.40897   0.44596   0.37190   0.00000  Uiso   1.00
O72    O     0.31013   0.45538   0.41771   0.00000  Uiso   1.00
O73    O     0.36850   0.43957   0.46589   0.00000  Uiso   1.00
O74    O     0.30686   0.44219   0.35642   0.00000  Uiso   1.00
O75    O     0.32144   0.37568   0.33339   0.00000  Uiso   1.00
O76    O     0.30090   0.34556   0.41500   0.00000  Uiso   1.00
O77    O     0.32350   0.28843   0.37066   0.00000  Uiso   1.00
C78    C     0.29580   0.30357   0.39752   0.00000  Uiso   1.00
C79    C     0.43048   0.43439   0.33872   0.00000  Uiso   1.00
Ni80   Ni    0.36390   0.79644   0.98533   0.00000  Uiso   1.00
C81    C     0.52179   0.83788   0.04914   0.00000  Uiso   1.00
C82    C     0.48817   0.86806   0.05405   0.00000  Uiso   1.00
C83    C     0.44085   0.85688   0.03189   0.00000  Uiso   1.00
C84    C     0.46086   0.78933   0.99741   0.00000  Uiso   1.00
C85    C     0.50826   0.79867   1.01975   0.00000  Uiso   1.00
H86    H     0.19290   0.76313   0.00388   0.00000  Uiso   1.00
H87    H     0.23774   0.68967   0.89314   0.00000  Uiso   1.00
H88    H     0.31838   0.73465   0.91177   0.00000  Uiso   1.00
H89    H     0.27520   0.80685   0.02031   0.00000  Uiso   1.00
N90    N     0.30021   0.77322   0.96631   0.00000  Uiso   1.00
N91    N     0.42799   0.81746   0.00507   0.00000  Uiso   1.00
H92    H     0.49735   0.89776   0.07787   0.00000  Uiso   1.00
H93    H     0.41381   0.87813   0.03825   0.00000  Uiso   1.00
H94    H     0.44937   0.75809   0.97609   0.00000  Uiso   1.00
H95    H     0.53338   0.77450   1.01589   0.00000  Uiso   1.00
C96    C     0.20892   0.72290   0.94718   0.00000  Uiso   1.00
C97    C     0.24441   0.71621   0.92034   0.00000  Uiso   1.00
C98    C     0.29006   0.74180   0.93059   0.00000  Uiso   1.00
C99    C     0.26578   0.78231   0.99147   0.00000  Uiso   1.00
C100   C     0.21926   0.75752   0.98216   0.00000  Uiso   1.00
Ni101  Ni    0.47976   0.10425   0.21176   0.00000  Uiso   1.00
C102   C     0.42148   0.23200   0.26499   0.00000  Uiso   1.00
C103   C     0.39062   0.20089   0.23347   0.00000  Uiso   1.00
C104   C     0.40791   0.16182   0.21679   0.00000  Uiso   1.00
C105   C     0.48489   0.18543   0.26001   0.00000  Uiso   1.00
C106   C     0.46927   0.22426   0.27750   0.00000  Uiso   1.00
H107   H     0.50574   0.94038   0.19081   0.00000  Uiso   1.00
H108   H     0.61056   0.04579   0.15083   0.00000  Uiso   1.00
H109   H     0.56300   0.10423   0.17325   0.00000  Uiso   1.00
H110   H     0.45988   0.00232   0.21286   0.00000  Uiso   1.00
N111   N     0.50917   0.05599   0.19334   0.00000  Uiso   1.00
N112   N     0.45414   0.15465   0.23111   0.00000  Uiso   1.00
H113   H     0.35337   0.20565   0.22344   0.00000  Uiso   1.00
H114   H     0.38441   0.13704   0.19315   0.00000  Uiso   1.00
H115   H     0.52165   0.17924   0.27001   0.00000  Uiso   1.00
H116   H     0.49420   0.24760   0.30157   0.00000  Uiso   1.00
C117   C     0.56222   0.98815   0.16952   0.00000  Uiso   1.00
C118   C     0.57764   0.03487   0.16426   0.00000  Uiso   1.00
C119   C     0.55068   0.06817   0.17658   0.00000  Uiso   1.00
C120   C     0.49295   0.01104   0.19909   0.00000  Uiso   1.00
C121   C     0.51925   0.97614   0.18723   0.00000  Uiso   1.00
Ni122  Ni    0.62827   0.29929   0.51535   0.00000  Uiso   1.00
C123   C     0.77403   0.24909   0.55513   0.00000  Uiso   1.00
C124   C     0.74705   0.23860   0.51211   0.00000  Uiso   1.00
C125   C     0.70512   0.25790   0.50027   0.00000  Uiso   1.00
C126   C     0.71683   0.29950   0.57145   0.00000  Uiso   1.00
C127   C     0.75988   0.28140   0.58452   0.00000  Uiso   1.00
H128   H     0.46534   0.24567   0.44344   0.00000  Uiso   1.00
H129   H     0.50321   0.39328   0.45955   0.00000  Uiso   1.00
H130   H     0.58184   0.38188   0.50289   0.00000  Uiso   1.00
H131   H     0.54374   0.23741   0.48761   0.00000  Uiso   1.00
N132   N     0.56581   0.30920   0.49788   0.00000  Uiso   1.00
N133   N     0.69008   0.28644   0.53031   0.00000  Uiso   1.00
H134   H     0.75660   0.21330   0.48896   0.00000  Uiso   1.00
H135   H     0.68250   0.24758   0.46819   0.00000  Uiso   1.00
H136   H     0.70337   0.32163   0.59499   0.00000  Uiso   1.00
H137   H     0.77943   0.28945   0.61837   0.00000  Uiso   1.00
C138   C     0.47818   0.32019   0.44860   0.00000  Uiso   1.00
C139   C     0.51030   0.35888   0.46742   0.00000  Uiso   1.00
C140   C     0.55479   0.35252   0.49186   0.00000  Uiso   1.00
C141   C     0.53343   0.27138   0.48322   0.00000  Uiso   1.00
C142   C     0.48918   0.27612   0.45818   0.00000  Uiso   1.00
Ni143  Ni    0.73591   0.06389   0.85033   0.00000  Uiso   1.00
C144   C     0.79757   0.09817   0.71971   0.00000  Uiso   1.00
C145   C     0.77793   0.05315   0.72680   0.00000  Uiso   1.00
C146   C     0.75655   0.04460   0.76534   0.00000  Uiso   1.00
C147   C     0.77291   0.12380   0.78945   0.00000  Uiso   1.00
C148   C     0.79397   0.13404   0.75082   0.00000  Uiso   1.00
H149   H     0.62116   0.98913   0.94190   0.00000  Uiso   1.00
H150   H     0.76669   0.02945   0.01050   0.00000  Uiso   1.00
H151   H     0.78745   0.06382   0.94050   0.00000  Uiso   1.00
H152   H     0.64509   1.02445   0.87359   0.00000  Uiso   1.00
N153   N     0.71702   1.04646   0.90425   0.00000  Uiso   1.00
N154   N     0.75553   0.07948   0.79620   0.00000  Uiso   1.00
H155   H     0.78080   0.02470   0.70365   0.00000  Uiso   1.00
H156   H     0.74287   1.00970   0.77191   0.00000  Uiso   1.00
H157   H     0.77249   0.15078   0.81501   0.00000  Uiso   1.00
H158   H     0.81027   0.16890   0.74688   0.00000  Uiso   1.00
C159   C     0.69213   1.00674   0.98190   0.00000  Uiso   1.00
C160   C     0.73900   1.02897   0.98137   0.00000  Uiso   1.00
C161   C     0.75079   0.04861   0.94185   0.00000  Uiso   1.00
C162   C     0.67093   1.02651   0.90430   0.00000  Uiso   1.00
C163   C     0.65758   1.00642   0.94303   0.00000  Uiso   1.00
Ni164  Ni    0.75692   0.99233   0.37375   0.00000  Uiso   1.00
C165   C     0.80147   0.05217   0.51963   0.00000  Uiso   1.00
C166   C     0.83376   0.02878   0.49942   0.00000  Uiso   1.00
C167   C     0.81872   0.00669   0.45635   0.00000  Uiso   1.00
C168   C     0.73995   0.02575   0.45607   0.00000  Uiso   1.00
C169   C     0.75365   0.04885   0.49848   0.00000  Uiso   1.00
H170   H     0.75734   0.90719   0.22797   0.00000  Uiso   1.00
H171   H     0.67263   1.01927   0.22392   0.00000  Uiso   1.00
H172   H     0.69752   1.03342   0.30648   0.00000  Uiso   1.00
H173   H     0.78130   0.92429   0.31044   0.00000  Uiso   1.00
N174   N     0.74017   0.97945   0.31223   0.00000  Uiso   1.00
N175   N     0.77291   0.00716   0.43504   0.00000  Uiso   1.00
H176   H     0.87133   0.03167   0.51439   0.00000  Uiso   1.00
H177   H     0.84466  -0.00721   0.43840   0.00000  Uiso   1.00
H178   H     0.70415   0.02642   0.43795   0.00000  Uiso   1.00
H179   H     0.72812   0.06707   0.51295   0.00000  Uiso   1.00
C180   C     0.71372   0.96247   0.21945   0.00000  Uiso   1.00
C181   C     0.69709   0.99842   0.24196   0.00000  Uiso   1.00
C182   C     0.71069   1.00617   0.28869   0.00000  Uiso   1.00
C183   C     0.75746   0.94477   0.29110   0.00000  Uiso   1.00
C184   C     0.74421   0.93542   0.24442   0.00000  Uiso   1.00
Ni185  Ni    0.27126   0.54248   0.62403   0.00000  Uiso   1.00
C186   C     0.32106   0.49304   0.49358   0.00000  Uiso   1.00
C187   C     0.35418   0.50480   0.53332   0.00000  Uiso   1.00
C188   C     0.33894   0.52347   0.57137   0.00000  Uiso   1.00
C189   C     0.26022   0.52234   0.53110   0.00000  Uiso   1.00
C190   C     0.27407   0.50380   0.49197   0.00000  Uiso   1.00
H191   H     0.27835   0.61989   0.77494   0.00000  Uiso   1.00
H192   H     0.16058   0.51022   0.73363   0.00000  Uiso   1.00
H193   H     0.19136   0.49964   0.66173   0.00000  Uiso   1.00
H194   H     0.30690   0.60660   0.70170   0.00000  Uiso   1.00
N195   N     0.25009   0.55289   0.67832   0.00000  Uiso   1.00
N196   N     0.29233   0.53036   0.57003   0.00000  Uiso   1.00
H197   H     0.39079   0.49707   0.53583   0.00000  Uiso   1.00
H198   H     0.36350   0.52977   0.60293   0.00000  Uiso   1.00
H199   H     0.22317   0.52773   0.53119   0.00000  Uiso   1.00
H200   H     0.24751   0.49486   0.46200   0.00000  Uiso   1.00
C201   C     0.21739   0.56578   0.76030   0.00000  Uiso   1.00
C202   C     0.19306   0.53164   0.72785   0.00000  Uiso   1.00
C203   C     0.21012   0.52576   0.68692   0.00000  Uiso   1.00
C204   C     0.27494   0.58577   0.70935   0.00000  Uiso   1.00
C205   C     0.25902   0.59291   0.75092   0.00000  Uiso   1.00
Ni206  Ni    0.23257   0.46478   0.13055   0.00000  Uiso   1.00
C207   C     0.17458   0.52058   0.99480   0.00000  Uiso   1.00
C208   C     0.14321   0.50171   0.02367   0.00000  Uiso   1.00
C209   C     0.16163   0.48201   0.06295   0.00000  Uiso   1.00
C210   C     0.24077   0.49674   0.04482   0.00000  Uiso   1.00
C211   C     0.22371   0.51651   1.00469   0.00000  Uiso   1.00
H212   H     0.25478   0.48699   0.29615   0.00000  Uiso   1.00
H213   H     0.31577   0.37254   0.24355   0.00000  Uiso   1.00
H214   H     0.28546   0.39267   0.16596   0.00000  Uiso   1.00
H215   H     0.22535   0.50426   0.21749   0.00000  Uiso   1.00
N216   N     0.25452   0.44957   0.18833   0.00000  Uiso   1.00
N217   N     0.20974   0.48110   0.07339   0.00000  Uiso   1.00
H218   H     0.10507   0.50445   1.01713   0.00000  Uiso   1.00
H219   H     0.13793   0.46984   0.08657   0.00000  Uiso   1.00
H220   H     0.27901   0.49619   0.05439   0.00000  Uiso   1.00
H221   H     0.24896   0.53147   0.98357   0.00000  Uiso   1.00
C222   C     0.28735   0.42817   0.27602   0.00000  Uiso   1.00
C223   C     0.29584   0.40152   0.23879   0.00000  Uiso   1.00
C224   C     0.27901   0.41293   0.19487   0.00000  Uiso   1.00
C225   C     0.24548   0.47567   0.22382   0.00000  Uiso   1.00
C226   C     0.26198   0.46574   0.26824   0.00000  Uiso   1.00
Ni227  Ni    0.11809   0.19828   0.45385   0.00000  Uiso   1.00
C228   C     0.25286   0.27331   0.40616   0.00000  Uiso   1.00
C229   C     0.20868   0.29054   0.39954   0.00000  Uiso   1.00
C230   C     0.16791   0.26482   0.41110   0.00000  Uiso   1.00
C231   C     0.21285   0.20491   0.43475   0.00000  Uiso   1.00
C232   C     0.25478   0.22939   0.42272   0.00000  Uiso   1.00
H233   H     0.96007   0.20796   0.49877   0.00000  Uiso   1.00
H234   H     0.03334   0.09631   0.55149   0.00000  Uiso   1.00
H235   H     0.09805   0.12015   0.50725   0.00000  Uiso   1.00
H236   H     0.02664   0.22905   0.45548   0.00000  Uiso   1.00
N237   N     0.06512   0.17543   0.47925   0.00000  Uiso   1.00
N238   N     0.17087   0.22352   0.42946   0.00000  Uiso   1.00
H239   H     0.20603   0.32422   0.38646   0.00000  Uiso   1.00
H240   H     0.13410   0.27868   0.40744   0.00000  Uiso   1.00
H241   H     0.21423   0.17205   0.44980   0.00000  Uiso   1.00
H242   H     0.28852   0.21538   0.42842   0.00000  Uiso   1.00
C243   C     0.99106   0.15014   0.52871   0.00000  Uiso   1.00
C244   C     0.03023   0.12503   0.53005   0.00000  Uiso   1.00
C245   C     0.06705   0.13836   0.50497   0.00000  Uiso   1.00
C246   C     0.02691   0.19940   0.47595   0.00000  Uiso   1.00
C247   C     0.98923   0.18731   0.50051   0.00000  Uiso   1.00
Ni248  Ni    0.03162   0.84583   0.74848   0.00000  Uiso   1.00
C249   C     0.98059  -0.02141   0.69412   0.00000  Uiso   1.00
C250   C     0.94889   0.94371   0.70895   0.00000  Uiso   1.00
C251   C     0.96630   0.90470   0.72600   0.00000  Uiso   1.00
C252   C     1.04540   0.93345   0.71372   0.00000  Uiso   1.00
C253   C     1.02956   0.97384   0.69720   0.00000  Uiso   1.00
H254   H     0.00341   0.71338   0.83883   0.00000  Uiso   1.00
H255   H     0.13203   0.72073   0.77566   0.00000  Uiso   1.00
H256   H     0.11048   0.79194   0.74077   0.00000  Uiso   1.00
H257   H     0.98521   0.78418   0.80292   0.00000  Uiso   1.00
N258   N     0.04703   0.79118   0.77054   0.00000  Uiso   1.00
N259   N     1.01347   0.89989   0.72733   0.00000  Uiso   1.00
H260   H     0.91102   0.94678   0.70759   0.00000  Uiso   1.00
H261   H     0.94212   0.87771   0.73786   0.00000  Uiso   1.00
H262   H     0.08280   0.92865   0.71522   0.00000  Uiso   1.00
H263   H     1.05473   1.00022   0.68568   0.00000  Uiso   1.00
C264   C     0.06931   0.71107   0.81012   0.00000  Uiso   1.00
C265   C     0.09896   0.73322   0.78128   0.00000  Uiso   1.00
C266   C     0.08712   0.77375   0.76178   0.00000  Uiso   1.00
C267   C     0.01683   0.76938   0.79669   0.00000  Uiso   1.00
C268   C     0.02725   0.72917   0.81684   0.00000  Uiso   1.00
Ni269  Ni    0.95883   0.35849   0.78160   0.00000  Uiso   1.00
C270   C     0.03118   0.50510   0.82626   0.00000  Uiso   1.00
C271   C     0.01479   0.47645   0.85901   0.00000  Uiso   1.00
C272   C    -0.01104   0.43287   0.84532   0.00000  Uiso   1.00
C273   C     0.99135   0.44793   0.76826   0.00000  Uiso   1.00
C274   C     0.01768   0.49121   0.78039   0.00000  Uiso   1.00
H275   H     0.93879   0.18754   0.78589   0.00000  Uiso   1.00
H276   H     0.92382   0.24686   0.65548   0.00000  Uiso   1.00
H277   H     0.93204   0.32322   0.69345   0.00000  Uiso   1.00
H278   H     0.94956   0.26699   0.82185   0.00000  Uiso   1.00
N279   N     0.94046   0.29857   0.75909   0.00000  Uiso   1.00
N280   N    -0.02077   0.41916   0.80061   0.00000  Uiso   1.00
H281   H     0.02572   0.48572   0.89475   0.00000  Uiso   1.00
H282   H    -0.02036   0.40896   0.87036   0.00000  Uiso   1.00
H283   H     0.98378   0.43574   0.73302   0.00000  Uiso   1.00
H284   H     0.03056   0.51215   0.75437   0.00000  Uiso   1.00
C285   C     0.93027   0.21096   0.71771   0.00000  Uiso   1.00
C286   C     0.92759   0.24973   0.69198   0.00000  Uiso   1.00
C287   C     0.93220   0.29315   0.71334   0.00000  Uiso   1.00
C288   C     0.94209   0.26164   0.78541   0.00000  Uiso   1.00
C289   C     0.93640   0.21681   0.76508   0.00000  Uiso   1.00
Ni290  Ni    0.86646   0.73243   0.04439   0.00000  Uiso   1.00
C291   C     0.73305   0.80127   0.06594   0.00000  Uiso   1.00
C292   C     0.76251   0.81700   0.03409   0.00000  Uiso   1.00
C293   C     0.80199   0.79499   0.02770   0.00000  Uiso   1.00
C294   C     0.78319   0.74091   0.08159   0.00000  Uiso   1.00
C295   C     0.74328   0.76201   0.08920   0.00000  Uiso   1.00
H296   H     0.03593   0.73898   1.02165   0.00000  Uiso   1.00
H297   H     0.94745   0.60633   0.99591   0.00000  Uiso   1.00
H298   H     0.88078   0.64026   1.02239   0.00000  Uiso   1.00
H299   H     0.96690   0.77027   1.04757   0.00000  Uiso   1.00
N300   N     0.92065   0.70674   1.03577   0.00000  Uiso   1.00
N301   N     0.81202   0.75823   0.05190   0.00000  Uiso   1.00
H302   H     0.75663   0.84745   0.01581   0.00000  Uiso   1.00
H303   H     0.82562   0.80807   0.00435   0.00000  Uiso   1.00
H304   H     0.79204   0.71150   0.10029   0.00000  Uiso   1.00
H305   H     0.72201   0.74890   0.11442   0.00000  Uiso   1.00
C306   C     0.99697   0.67021   1.00634   0.00000  Uiso   1.00
C307   C     0.95321   0.64214   1.00815   0.00000  Uiso   1.00
C308   C     0.91534   0.66120   1.02312   0.00000  Uiso   1.00
C309   C     0.96367   0.73411   1.03728   0.00000  Uiso   1.00
C310   C     1.00276   0.71631   1.02278   0.00000  Uiso   1.00
Ni311  Ni    0.53226   0.60832   0.27286   0.00000  Uiso   1.00
C312   C     0.58808   0.74936   0.22265   0.00000  Uiso   1.00
C313   C     0.62030   0.72640   0.25084   0.00000  Uiso   1.00
C314   C     0.60366   0.68355   0.26660   0.00000  Uiso   1.00
C315   C     0.52478   0.68722   0.22880   0.00000  Uiso   1.00
C316   C     0.53975   0.72951   0.21226   0.00000  Uiso   1.00
H317   H     0.52626   0.44866   0.32586   0.00000  Uiso   1.00
H318   H     0.39358   0.50785   0.30731   0.00000  Uiso   1.00
H319   H     0.43712   0.57781   0.28167   0.00000  Uiso   1.00
H320   H     0.56774   0.52105   0.29990   0.00000  Uiso   1.00
N321   N     0.50422   0.55275   0.29001   0.00000  Uiso   1.00
N322   N     0.55668   0.66478   0.25470   0.00000  Uiso   1.00
H323   H     0.65797   0.74058   0.25931   0.00000  Uiso   1.00
H324   H     0.62821   0.66509   0.28766   0.00000  Uiso   1.00
H325   H     0.48756   0.67167   0.22047   0.00000  Uiso   1.00
H326   H     0.51379   0.74622   0.19084   0.00000  Uiso   1.00
C327   C     0.45669   0.47287   0.31842   0.00000  Uiso   1.00
C328   C     0.43171   0.50955   0.30547   0.00000  Uiso   1.00
C329   C     0.45619   0.54917   0.29114   0.00000  Uiso   1.00
C330   C     0.52948   0.51727   0.30122   0.00000  Uiso   1.00
C331   C     0.50600   0.47631   0.31551   0.00000  Uiso   1.00
loop_
_geom_bond_atom_site_label_1
_geom_bond_atom_site_label_2
_geom_bond_distance
_geom_bond_site_symmetry_2
_ccdc_geom_bond_type
C0     O4      1.280   .     A
C0     O5      1.282   .     A
C0     C201    1.475   .     S
Ho1    O4      2.174   .     S
Ho1    O5      2.191   .     S
Ho1    O6      2.180   .     S
Ho1    O7      2.172   .     S
Ho1    O10     2.232   .     S
Ho1    O15     2.128   .     S
Ho1    O17     2.210   .     S
C2     O12     1.284   .     A
C2     O13     1.275   .     A
C2     C306    1.476   1_455 S
Ho3    O7      2.163   .     S
Ho3    O11     2.185   .     S
Ho3    O12     2.194   .     S
Ho3    O13     2.162   .     S
Ho3    O14     2.223   .     S
Ho3    O15     2.149   .     S
Ho3    O16     2.185   .     S
O6     C8      1.226   .     D
O7     C8      1.395   .     S
C8     C270    1.469   .     S
C9     O14     1.227   .     D
C9     O15     1.376   .     S
C9     C96     1.474   .     S
O10    C19     1.319   .     A
O11    C19     1.310   .     A
O16    C18     1.288   .     A
O17    C18     1.292   .     A
C18    C264    1.480   .     S
C19    C207    1.473   .     S
C20    O24     1.278   .     A
C20    O25     1.281   .     A
C20    C312    1.476   .     S
Ho21   O24     2.169   .     S
Ho21   O25     2.196   .     S
Ho21   O26     2.208   .     S
Ho21   O27     2.108   .     S
Ho21   O30     2.245   .     S
Ho21   O35     2.165   .     S
Ho21   O37     2.218   .     S
C22    O32     1.284   .     A
C22    O33     1.278   .     A
C22    C159    1.477   1_554 S
Ho23   O27     2.149   .     S
Ho23   O31     2.242   .     S
Ho23   O32     2.179   .     S
Ho23   O33     2.164   .     S
Ho23   O34     2.241   .     S
Ho23   O35     2.199   .     S
Ho23   O36     2.192   .     S
O26    C28     1.222   .     D
O27    C28     1.380   .     S
C28    C81     1.464   .     S
C29    O34     1.216   .     D
C29    O35     1.364   .     S
C29    C180    1.473   .     S
O30    C39     1.316   .     A
O31    C39     1.318   .     A
O36    C38     1.298   .     A
O37    C38     1.301   .     A
C38    C291    1.486   .     S
C39    C117    1.480   .     S
C40    O44     1.280   .     A
C40    O45     1.280   .     A
C40    C123    1.468   .     S
Ho41   O44     2.170   .     S
Ho41   O45     2.199   .     S
Ho41   O46     2.186   .     S
Ho41   O47     2.113   .     S
Ho41   O50     2.214   .     S
Ho41   O55     2.121   .     S
Ho41   O57     2.217   .     S
C42    O52     1.280   .     A
C42    O53     1.274   .     A
C42    C249    1.467   .     S
Ho43   O47     2.175   .     S
Ho43   O51     2.204   .     S
Ho43   O52     2.188   .     S
Ho43   O53     2.161   .     S
Ho43   O54     2.274   .     S
Ho43   O55     2.199   .     S
Ho43   O56     2.211   .     S
O46    C48     1.228   .     D
O47    C48     1.396   .     S
C48    C165    1.468   .     S
C49    O54     1.202   .     D
C49    O55     1.343   .     S
C49    C285    1.472   .     S
O50    C59     1.313   .     A
O51    C59     1.310   .     A
O56    C58     1.302   .     A
O57    C58     1.300   .     A
C58    C144    1.467   .     S
C59    C243    1.481   .     S
C60    O64     1.278   .     A
C60    O65     1.283   .     A
C60    C102    1.473   .     S
Ho61   O64     2.168   .     S
Ho61   O65     2.208   .     S
Ho61   O66     2.179   .     S
Ho61   O67     2.167   .     S
Ho61   O70     2.219   .     S
Ho61   O75     2.146   .     S
Ho61   O77     2.222   .     S
C62    O72     1.283   .     A
C62    O73     1.273   .     A
C62    C186    1.475   .     S
Ho63   O67     2.160   .     S
Ho63   O71     2.184   .     S
Ho63   O72     2.198   .     S
Ho63   O73     2.161   .     S
Ho63   O74     2.208   .     S
Ho63   O75     2.155   .     S
Ho63   O76     2.186   .     S
O66    C68     1.227   .     D
O67    C68     1.398   .     S
C68    C138    1.464   .     S
C69    O74     1.226   .     D
C69    O75     1.382   .     S
C69    C222    1.475   .     S
O70    C79     1.302   .     A
O71    C79     1.295   .     A
O76    C78     1.302   .     A
O77    C78     1.307   .     A
C78    C228    1.469   .     S
C79    C327    1.468   .     S
Ni80   N90     1.842   .     S
Ni80   N91     1.842   1_556 S
C81    C82     1.402   .     A
C81    C85     1.398   1_554 A
C82    C83     1.398   .     A
C82    H92     1.084   .     S
C83    N91     1.360   .     A
C83    H93     1.082   .     S
C84    C85     1.398   .     A
C84    H94     1.082   .     S
C84    N91     1.361   1_556 A
C85    H95     1.083   .     S
C85    C81     1.398   1_556 A
H86    C100    1.083   1_554 S
H87    C97     1.084   .     S
H88    C98     1.083   .     S
H89    C99     1.082   1_554 S
N90    C98     1.358   .     A
N90    C99     1.362   .     A
N91    Ni80    1.842   1_554 S
N91    C84     1.361   1_554 A
C96    C97     1.403   .     A
C96    C100    1.403   .     A
C97    C98     1.393   .     A
C99    C100    1.403   .     A
C99    H89     1.082   1_556 S
C100   H86     1.083   1_556 S
Ni101  N111    1.841   .     S
Ni101  N112    1.841   .     S
C102   C103    1.405   .     A
C102   C106    1.401   .     A
C103   C104    1.407   .     A
C103   H113    1.083   .     S
C104   N112    1.363   .     A
C104   H114    1.081   .     S
C105   C106    1.387   .     A
C105   N112    1.356   .     A
C105   H115    1.082   .     S
C106   H116    1.084   .     S
H107   C121    1.083   .     S
H108   C118    1.083   .     S
H109   C119    1.082   .     S
H110   C120    1.082   .     S
N111   C119    1.355   .     A
N111   C120    1.363   .     A
C117   C121    1.405   .     A
C117   C118    1.404   1_565 A
C118   C119    1.388   .     A
C118   C117    1.404   1_545 A
C120   C121    1.408   1_545 A
C121   C120    1.408   1_565 A
Ni122  N132    1.835   .     S
Ni122  N133    1.835   .     S
C123   C124    1.399   .     A
C123   C127    1.405   .     A
C124   C125    1.388   .     A
C124   H134    1.083   .     S
C125   N133    1.357   .     A
C125   H135    1.082   .     S
C126   C127    1.403   .     A
C126   N133    1.361   .     A
C126   H136    1.083   .     S
C127   H137    1.083   .     S
H128   C142    1.083   .     S
H129   C139    1.082   .     S
H130   C140    1.081   .     S
H131   C141    1.082   .     S
N132   C140    1.360   .     A
N132   C141    1.358   .     A
C138   C139    1.402   .     A
C138   C142    1.399   .     A
C139   C140    1.401   .     A
C141   C142    1.390   .     A
Ni143  N154    1.841   .     S
Ni143  N153    1.841   1_545 S
C144   C145    1.400   .     A
C144   C148    1.403   .     A
C145   C146    1.394   .     A
C145   H155    1.084   .     S
C146   N154    1.359   .     A
C146   H156    1.081   1_545 S
C147   C148    1.400   .     A
C147   N154    1.361   .     A
C147   H157    1.082   .     S
C148   H158    1.083   .     S
H149   C163    1.083   .     S
H150   C160    1.083   1_544 S
H151   C161    1.082   .     S
H152   C162    1.083   .     S
N153   C162    1.359   .     A
N153   Ni143   1.841   1_565 S
N153   C161    1.360   1_565 A
H156   C146    1.081   1_565 S
C159   C160    1.402   .     A
C159   C163    1.406   .     A
C159   C22     1.477   1_556 S
C160   H150    1.083   1_566 S
C160   C161    1.398   1_565 A
C161   N153    1.360   1_545 A
C161   C160    1.398   1_545 A
C162   C163    1.397   .     A
Ni164  N174    1.845   .     S
Ni164  N175    1.845   1_565 S
C165   C166    1.403   .     A
C165   C169    1.399   .     A
C166   C167    1.403   .     A
C166   H176    1.084   .     S
C167   N175    1.362   .     A
C167   H177    1.083   .     S
C168   C169    1.394   .     A
C168   N175    1.359   .     A
C168   H178    1.081   .     S
C169   H179    1.083   .     S
H170   C184    1.082   .     S
H171   C181    1.083   .     S
H172   C182    1.080   .     S
H173   C183    1.082   .     S
N174   C182    1.360   .     A
N174   C183    1.360   .     A
N175   Ni164   1.845   1_545 S
C180   C181    1.400   .     A
C180   C184    1.404   .     A
C181   C182    1.397   .     A
C183   C184    1.399   .     A
Ni185  N195    1.840   .     S
Ni185  N196    1.840   .     S
C186   C187    1.404   .     A
C186   C190    1.403   .     A
C187   C188    1.394   .     A
C187   H197    1.083   .     S
C188   N196    1.357   .     A
C188   H198    1.082   .     S
C189   C190    1.401   .     A
C189   N196    1.362   .     A
C189   H199    1.082   .     S
C190   H200    1.083   .     S
H191   C205    1.083   .     S
H192   C202    1.083   .     S
H193   C203    1.082   .     S
H194   C204    1.082   .     S
N195   C203    1.358   .     A
N195   C204    1.361   .     A
C201   C202    1.404   .     A
C201   C205    1.403   .     A
C202   C203    1.393   .     A
C204   C205    1.401   .     A
Ni206  N216    1.842   .     S
Ni206  N217    1.841   .     S
C207   C211    1.402   .     A
C207   C208    1.404   1_556 A
C208   C209    1.392   .     A
C208   C207    1.404   1_554 A
C208   H218    1.084   1_554 S
C209   N217    1.357   .     A
C209   H219    1.082   .     S
C210   N217    1.362   .     A
C210   H220    1.082   .     S
C210   C211    1.402   1_554 A
C211   H221    1.083   .     S
C211   C210    1.402   1_556 A
H212   C226    1.083   .     S
H213   C223    1.083   .     S
H214   C224    1.082   .     S
H215   C225    1.082   .     S
N216   C224    1.359   .     A
N216   C225    1.360   .     A
H218   C208    1.084   1_556 S
C222   C223    1.405   .     A
C222   C226    1.401   .     A
C223   C224    1.399   .     A
C225   C226    1.397   .     A
Ni227  N237    1.839   .     S
Ni227  N238    1.839   .     S
C228   C229    1.401   .     A
C228   C232    1.402   .     A
C229   C230    1.389   .     A
C229   H239    1.084   .     S
C230   N238    1.356   .     A
C230   H240    1.082   .     S
C231   C232    1.405   .     A
C231   N238    1.364   .     A
C231   H241    1.082   .     S
C232   H242    1.083   .     S
H233   C247    1.083   .     S
H234   C244    1.082   .     S
H235   C245    1.082   .     S
H236   C246    1.082   .     S
N237   C245    1.357   .     A
N237   C246    1.360   .     A
C243   C247    1.404   .     A
C243   C244    1.407   1_655 A
C244   C245    1.395   .     A
C244   C243    1.407   1_455 A
C246   C247    1.398   1_455 A
C247   C246    1.398   1_655 A
Ni248  N258    1.837   .     S
Ni248  N259    1.837   1_455 S
C249   C250    1.399   1_545 S
C249   C253    1.403   1_545 D
C250   C251    1.390   .     A
C250   H260    1.084   .     S
C250   C249    1.399   1_565 S
C251   N259    1.357   .     A
C251   H261    1.082   .     S
C252   C253    1.403   .     A
C252   N259    1.362   .     A
C252   H262    1.082   1_655 S
C253   H263    1.082   .     S
C253   C249    1.403   1_565 D
H254   C268    1.083   .     S
H255   C265    1.083   .     S
H256   C266    1.082   .     S
H257   C267    1.082   1_655 S
N258   C266    1.360   .     A
N258   C267    1.357   .     A
N259   Ni248   1.837   1_655 S
H262   C252    1.082   1_455 S
C264   C265    1.407   .     A
C264   C268    1.404   .     A
C265   C266    1.402   .     A
C267   C268    1.391   .     A
C267   H257    1.082   1_455 S
Ni269  N279    1.839   .     S
Ni269  N280    1.839   1_655 S
C270   C271    1.404   .     A
C270   C274    1.400   .     A
C271   C272    1.402   .     A
C271   H281    1.083   .     S
C272   N280    1.360   .     A
C272   H282    1.082   .     S
C273   H283    1.082   .     S
C273   C274    1.392   1_655 A
C273   N280    1.359   1_655 A
C274   H284    1.084   .     S
C274   C273    1.392   1_455 A
H275   C289    1.082   .     S
H276   C286    1.081   .     S
H277   C287    1.082   .     S
H278   C288    1.082   .     S
N279   C287    1.354   .     A
N279   C288    1.364   .     A
N280   Ni269   1.839   1_455 S
N280   C273    1.359   1_455 A
C285   C286    1.400   .     A
C285   C289    1.404   .     A
C286   C287    1.386   .     A
C288   C289    1.408   .     A
Ni290  N301    1.843   .     S
Ni290  N300    1.843   1_554 S
C291   C292    1.407   .     A
C291   C295    1.408   .     A
C292   C293    1.396   .     A
C292   H302    1.083   .     S
C293   N301    1.358   .     A
C293   H303    1.082   .     S
C294   C295    1.401   .     A
C294   N301    1.360   .     A
C294   H304    1.082   .     S
C295   H305    1.083   .     S
H296   C310    1.083   1_455 S
H297   C307    1.083   .     S
H298   C308    1.082   .     S
H299   C309    1.082   .     S
N300   C308    1.358   .     A
N300   C309    1.362   .     A
N300   Ni290   1.843   1_556 S
C306   C307    1.404   .     A
C306   C310    1.403   .     A
C306   C2      1.476   1_655 S
C307   C308    1.394   .     A
C309   C310    1.401   .     A
C310   H296    1.083   1_655 S
Ni311  N321    1.841   .     S
Ni311  N322    1.841   .     S
C312   C313    1.406   .     A
C312   C316    1.401   .     A
C313   C314    1.406   .     A
C313   H323    1.083   .     S
C314   N322    1.362   .     A
C314   H324    1.082   .     S
C315   C316    1.390   .     A
C315   N322    1.357   .     A
C315   H325    1.082   .     S
C316   H326    1.083   .     S
H317   C331    1.083   .     S
H318   C328    1.084   .     S
H319   C329    1.082   .     S
H320   C330    1.082   .     S
N321   C329    1.356   .     A
N321   C330    1.364   .     A
C327   C328    1.400   .     A
C327   C331    1.403   .     A
C328   C329    1.388   .     A
C330   C331    1.407   .     A
