data_lcy+N394+E191
_audit_creation_date              2025-01-21
_audit_creation_method            'Materials Studio'
_symmetry_space_group_name_H-M    'P1'
_symmetry_Int_Tables_number       1
_symmetry_cell_setting            triclinic
loop_
_symmetry_equiv_pos_as_xyz
  x,y,z
_cell_length_a                    30.1233
_cell_length_b                    27.7375
_cell_length_c                    30.0931
_cell_angle_alpha                 95.8079
_cell_angle_beta                  96.6950
_cell_angle_gamma                 88.2220
loop_
_atom_site_label
_atom_site_type_symbol
_atom_site_fract_x
_atom_site_fract_y
_atom_site_fract_z
_atom_site_U_iso_or_equiv
_atom_site_adp_type
_atom_site_occupancy
Pr0    Pr    0.10010   0.67789   0.87225   0.00000  Uiso   1.00
Pr1    Pr    0.14217   0.61067   0.94121   0.00000  Uiso   1.00
O2     O     0.09190   0.65290   0.98357   0.00000  Uiso   1.00
O3     O     0.06042   0.70209   0.93142   0.00000  Uiso   1.00
O4     O     0.05119   0.71103   0.81915   0.00000  Uiso   1.00
O5     O     0.10723   0.75288   0.85003   0.00000  Uiso   1.00
O6     O     0.16443   0.67596   0.91415   0.00000  Uiso   1.00
O7     O     0.14249   0.74645   0.89588   0.00000  Uiso   1.00
C8     C     0.09898   0.56069   0.86632   0.00000  Uiso   1.00
C9     C     0.06230   0.68473   0.96998   0.00000  Uiso   1.00
C10    C     0.07218   0.75077   0.82183   0.00000  Uiso   1.00
C11    C     0.17938   0.55758   1.00584   0.00000  Uiso   1.00
C12    C     0.18266   0.61107   0.84165   0.00000  Uiso   1.00
C13    C     0.17110   0.72515   0.91915   0.00000  Uiso   1.00
O14    O     0.15180   0.64243   0.82946   0.00000  Uiso   1.00
O15    O     0.18583   0.59149   0.88013   0.00000  Uiso   1.00
O16    O     0.19797   0.59483   0.99499   0.00000  Uiso   1.00
O17    O     0.14288   0.54563   0.98152   0.00000  Uiso   1.00
O18    O     0.08121   0.60227   0.88794   0.00000  Uiso   1.00
O19    O     0.13710   0.55176   0.88200   0.00000  Uiso   1.00
Pr20   Pr    0.63179   0.87670   0.06339   0.00000  Uiso   1.00
Pr21   Pr    0.60366   0.80288   0.11526   0.00000  Uiso   1.00
O22    O     0.66773   0.76369   0.09256   0.00000  Uiso   1.00
O23    O     0.68258   0.81795   0.04352   0.00000  Uiso   1.00
O24    O     0.66786   0.94180   0.04452   0.00000  Uiso   1.00
O25    O     0.61982   0.90549   0.99509   0.00000  Uiso   1.00
O26    O     0.58915   0.81131   0.04292   0.00000  Uiso   1.00
O27    O     0.57640   0.87202   1.00340   0.00000  Uiso   1.00
C28    C     0.65162   0.85534   0.18146   0.00000  Uiso   1.00
C29    C     0.69174   0.77880   0.06346   0.00000  Uiso   1.00
C30    C     0.64849   0.93893   1.00423   0.00000  Uiso   1.00
C31    C     0.57889   0.73487   0.16472   0.00000  Uiso   1.00
C32    C     0.54781   0.90463   0.11773   0.00000  Uiso   1.00
C33    C     0.55962   0.83607   0.01427   0.00000  Uiso   1.00
O34    O     0.57584   0.91998   0.09351   0.00000  Uiso   1.00
O35    O     0.54867   0.86091   0.12954   0.00000  Uiso   1.00
O36    O     0.56392   0.73678   0.12342   0.00000  Uiso   1.00
O37    O     0.60562   0.76883   0.18122   0.00000  Uiso   1.00
O38    O     0.65656   0.86043   0.13593   0.00000  Uiso   1.00
O39    O     0.62931   0.82075   0.18722   0.00000  Uiso   1.00
Pr40   Pr    0.89902   0.15770   0.55830   0.00000  Uiso   1.00
Pr41   Pr    0.84298   0.12364   0.62987   0.00000  Uiso   1.00
O42    O     0.88801   0.17975   0.67543   0.00000  Uiso   1.00
O43    O     0.92255   0.20886   0.61998   0.00000  Uiso   1.00
O44    O     0.92818   0.20626   0.51215   0.00000  Uiso   1.00
O45    O     0.96484   0.14250   0.52976   0.00000  Uiso   1.00
O46    O     0.89716   0.09155   0.59384   0.00000  Uiso   1.00
O47    O     0.96151   0.11907   0.59516   0.00000  Uiso   1.00
C48    C     0.79209   0.16392   0.56274   0.00000  Uiso   1.00
C49    C     0.91295   0.21080   0.66086   0.00000  Uiso   1.00
C50    C     0.96376   0.18054   0.50952   0.00000  Uiso   1.00
C51    C     0.79678   0.09380   0.69242   0.00000  Uiso   1.00
C52    C     0.83399   0.06788   0.52369   0.00000  Uiso   1.00
C53    C     0.94077   0.08950   0.61057   0.00000  Uiso   1.00
O54    O     0.86438   0.09571   0.51328   0.00000  Uiso   1.00
O55    O     0.81903   0.07113   0.56356   0.00000  Uiso   1.00
O56    O     0.82979   0.06955   0.67777   0.00000  Uiso   1.00
O57    O     0.78657   0.13290   0.67401   0.00000  Uiso   1.00
O58    O     0.83199   0.18363   0.58386   0.00000  Uiso   1.00
O59    O     0.78512   0.12420   0.57431   0.00000  Uiso   1.00
Pr60   Pr    0.38154   0.41885   0.43921   0.00000  Uiso   1.00
Pr61   Pr    0.40482   0.31746   0.38069   0.00000  Uiso   1.00
O62    O     0.34806   0.30111   0.42207   0.00000  Uiso   1.00
O63    O     0.32397   0.37357   0.45114   0.00000  Uiso   1.00
O64    O     0.34620   0.48579   0.47209   0.00000  Uiso   1.00
O65    O     0.39349   0.44665   0.51330   0.00000  Uiso   1.00
O66    O     0.43613   0.36140   0.44079   0.00000  Uiso   1.00
O67    O     0.41711   0.38797   0.50448   0.00000  Uiso   1.00
C68    C     0.33686   0.37201   0.33670   0.00000  Uiso   1.00
C69    C     0.31959   0.32804   0.44197   0.00000  Uiso   1.00
C70    C     0.36434   0.48048   0.51171   0.00000  Uiso   1.00
C71    C     0.42088   0.27366   0.29967   0.00000  Uiso   1.00
C72    C     0.45217   0.43216   0.38008   0.00000  Uiso   1.00
C73    C     0.43910   0.35665   0.48544   0.00000  Uiso   1.00
O74    O     0.44066   0.45177   0.41790   0.00000  Uiso   1.00
O75    O     0.43770   0.38980   0.36107   0.00000  Uiso   1.00
O76    O     0.44972   0.29994   0.32450   0.00000  Uiso   1.00
O77    O     0.38272   0.27502   0.31371   0.00000  Uiso   1.00
O78    O     0.37321   0.39125   0.36318   0.00000  Uiso   1.00
O79    O     0.33943   0.32841   0.33359   0.00000  Uiso   1.00
Ni80   Ni    0.36244   0.78792   0.97127   0.00000  Uiso   1.00
C81    C     0.51326   0.82126  -0.00124   0.00000  Uiso   1.00
C82    C     0.49612   0.78051   0.01441   0.00000  Uiso   1.00
C83    C     0.45056   0.77073   0.00481   0.00000  Uiso   1.00
C84    C     0.43877   0.83959   0.96394   0.00000  Uiso   1.00
C85    C     0.48416   0.85071   0.97275   0.00000  Uiso   1.00
H86    H     0.23529   0.68282   0.97403   0.00000  Uiso   1.00
H87    H     0.20520   0.81379   0.90914   0.00000  Uiso   1.00
H88    H     0.28409   0.83741   0.92967   0.00000  Uiso   1.00
H89    H     0.31311   0.70920   0.99320   0.00000  Uiso   1.00
N90    N     0.30224   0.77425   0.96213   0.00000  Uiso   1.00
N91    N     0.42285   0.80053   0.98056   0.00000  Uiso   1.00
H92    H     0.51740   0.75731   0.03503   0.00000  Uiso   1.00
H93    H     0.43703   0.73987   0.01756   0.00000  Uiso   1.00
H94    H     0.41603   0.86269   0.94472   0.00000  Uiso   1.00
H95    H     0.49607   0.88284   0.96058   0.00000  Uiso   1.00
C96    C     0.21394   0.74625   0.93995   0.00000  Uiso   1.00
C97    C     0.22786   0.79089   0.92874   0.00000  Uiso   1.00
C98    C     0.27261   0.80418   0.94006   0.00000  Uiso   1.00
C99    C     0.28889   0.73226   0.97564   0.00000  Uiso   1.00
C100   C     0.24470   0.71755   0.96489   0.00000  Uiso   1.00
Ni101  Ni    0.46482   0.08984   0.19032   0.00000  Uiso   1.00
C102   C     0.43174   0.23833   0.26232   0.00000  Uiso   1.00
C103   C     0.39757   0.21009   0.23785   0.00000  Uiso   1.00
C104   C     0.40844   0.16668   0.21350   0.00000  Uiso   1.00
C105   C     0.48573   0.18064   0.23349   0.00000  Uiso   1.00
C106   C     0.47638   0.22444   0.25824   0.00000  Uiso   1.00
H107   H     0.50097   0.96991   0.06917   0.00000  Uiso   1.00
H108   H     0.52531   0.92440   0.20300   0.00000  Uiso   1.00
H109   H     0.49190   1.00228   0.23201   0.00000  Uiso   1.00
H110   H     0.46825   0.04644   0.10084   0.00000  Uiso   1.00
N111   N     0.47854   0.02775   0.16764   0.00000  Uiso   1.00
N112   N     0.45185   0.15201   0.21333   0.00000  Uiso   1.00
H113   H     0.36273   0.21946   0.24036   0.00000  Uiso   1.00
H114   H     0.38221   0.14322   0.19699   0.00000  Uiso   1.00
H115   H     0.51999   0.16801   0.23265   0.00000  Uiso   1.00
H116   H     0.50364   0.24491   0.27702   0.00000  Uiso   1.00
C117   C     0.51531   0.94099   0.13373   0.00000  Uiso   1.00
C118   C     0.51090   0.94951   0.17970   0.00000  Uiso   1.00
C119   C     0.49245   0.99377   0.19620   0.00000  Uiso   1.00
C120   C     0.47923   0.01860   0.12261   0.00000  Uiso   1.00
C121   C     0.49756   0.97518   0.10478   0.00000  Uiso   1.00
Ni122  Ni    0.61466   0.25817   0.52330   0.00000  Uiso   1.00
C123   C     0.75579   0.19083   0.53866   0.00000  Uiso   1.00
C124   C     0.72025   0.16483   0.51409   0.00000  Uiso   1.00
C125   C     0.67836   0.18727   0.50716   0.00000  Uiso   1.00
C126   C     0.70705   0.26150   0.54367   0.00000  Uiso   1.00
C127   C     0.74970   0.24044   0.55128   0.00000  Uiso   1.00
H128   H     0.46027   0.26564   0.45521   0.00000  Uiso   1.00
H129   H     0.49888   0.38016   0.55925   0.00000  Uiso   1.00
H130   H     0.57275   0.33924   0.57259   0.00000  Uiso   1.00
H131   H     0.53435   0.22696   0.47097   0.00000  Uiso   1.00
N132   N     0.55682   0.28151   0.52217   0.00000  Uiso   1.00
N133   N     0.67220   0.23407   0.52375   0.00000  Uiso   1.00
H134   H     0.72379   0.12637   0.50422   0.00000  Uiso   1.00
H135   H     0.64998   0.16644   0.49137   0.00000  Uiso   1.00
H136   H     0.70107   0.29875   0.55637   0.00000  Uiso   1.00
H137   H     0.77619   0.26130   0.57102   0.00000  Uiso   1.00
C138   C     0.47370   0.32548   0.50657   0.00000  Uiso   1.00
C139   C     0.50499   0.34519   0.54127   0.00000  Uiso   1.00
C140   C     0.54702   0.32247   0.54839   0.00000  Uiso   1.00
C141   C     0.52550   0.25949   0.49129   0.00000  Uiso   1.00
C142   C     0.48348   0.28113   0.48280   0.00000  Uiso   1.00
Ni143  Ni    0.71102   1.03384   0.85105   0.00000  Uiso   1.00
C144   C     0.77356   0.07845   0.72897   0.00000  Uiso   1.00
C145   C     0.78669   0.03528   0.74778   0.00000  Uiso   1.00
C146   C     0.76690   1.02277   0.78451   0.00000  Uiso   1.00
C147   C     0.72095   0.09375   0.78401   0.00000  Uiso   1.00
C148   C     0.73989   0.10769   0.74710   0.00000  Uiso   1.00
H149   H     0.71605   1.00425   1.01004   0.00000  Uiso   1.00
H150   H     0.60660   0.94110   0.91940   0.00000  Uiso   1.00
H151   H     0.63294  -0.01881   0.85834   0.00000  Uiso   1.00
H152   H     0.74021   1.04288   0.94651   0.00000  Uiso   1.00
N153   N     0.68752   1.01393   0.89972   0.00000  Uiso   1.00
N154   N     0.73504   0.05214   0.80204   0.00000  Uiso   1.00
H155   H     0.81243   1.01172   0.73465   0.00000  Uiso   1.00
H156   H     0.77717   0.98973   0.79943   0.00000  Uiso   1.00
H157   H     0.69531   0.11625   0.79853   0.00000  Uiso   1.00
H158   H     0.72886   0.14124   0.73340   0.00000  Uiso   1.00
C159   C     0.65949   0.96930   0.96968   0.00000  Uiso   1.00
C160   C     0.63539   0.96418   0.92669   0.00000  Uiso   1.00
C161   C     0.65010   0.98692   0.89201   0.00000  Uiso   1.00
C162   C     0.71029   1.02155   0.94151   0.00000  Uiso   1.00
C163   C     0.69660   0.99957   0.97736   0.00000  Uiso   1.00
Ni164  Ni    0.74422   0.96007   0.35305   0.00000  Uiso   1.00
C165   C     0.81375   0.03380   0.48641   0.00000  Uiso   1.00
C166   C     0.83777   0.02031   0.44960   0.00000  Uiso   1.00
C167   C     0.81622  -0.00304   0.41018   0.00000  Uiso   1.00
C168   C     0.74846  -0.00283   0.44309   0.00000  Uiso   1.00
C169   C     0.76883   0.02064   0.48344   0.00000  Uiso   1.00
H170   H     0.72538   0.91410   0.18798   0.00000  Uiso   1.00
H171   H     0.62703   0.86316   0.26506   0.00000  Uiso   1.00
H172   H     0.66582   0.90586   0.33321   0.00000  Uiso   1.00
H173   H     0.76264   0.95616   0.25890   0.00000  Uiso   1.00
N174   N     0.71585   0.93276   0.29924   0.00000  Uiso   1.00
N175   N     0.77214  -0.01310   0.40727   0.00000  Uiso   1.00
H176   H     0.87258   0.02951   0.45061   0.00000  Uiso   1.00
H177   H     0.83428  -0.01188   0.38131   0.00000  Uiso   1.00
H178   H     0.71340  -0.01150   0.43985   0.00000  Uiso   1.00
H179   H     0.74912   0.03068   0.51095   0.00000  Uiso   1.00
C180   C     0.67339   0.88506   0.22098   0.00000  Uiso   1.00
C181   C     0.65655   0.88357   0.26243   0.00000  Uiso   1.00
C182   C     0.67831   0.90774   0.30117   0.00000  Uiso   1.00
C183   C     0.73256   0.93603   0.25944   0.00000  Uiso   1.00
C184   C     0.71144   0.91239   0.21936   0.00000  Uiso   1.00
Ni185  Ni    0.29015   0.55526   0.68507   0.00000  Uiso   1.00
C186   C     0.35022   0.50673   0.55309   0.00000  Uiso   1.00
C187   C     0.37409   0.49937   0.59493   0.00000  Uiso   1.00
C188   C     0.35608   0.51590   0.63454   0.00000  Uiso   1.00
C189   C     0.29260   0.54853   0.59268   0.00000  Uiso   1.00
C190   C     0.30948   0.53272   0.55215   0.00000  Uiso   1.00
H191   H     0.22607   0.52293   0.82331   0.00000  Uiso   1.00
H192   H     0.21063   0.66855   0.78372   0.00000  Uiso   1.00
H193   H     0.25413   0.64421   0.72083   0.00000  Uiso   1.00
H194   H     0.26985   0.50153   0.75878   0.00000  Uiso   1.00
N195   N     0.26392   0.57197   0.73696   0.00000  Uiso   1.00
N196   N     0.31558   0.53902   0.63263   0.00000  Uiso   1.00
H197   H     0.40546   0.47912   0.59702   0.00000  Uiso   1.00
H198   H     0.37364   0.50889   0.66680   0.00000  Uiso   1.00
H199   H     0.26035   0.56692   0.59223   0.00000  Uiso   1.00
H200   H     0.28983   0.53847   0.52054   0.00000  Uiso   1.00
C201   C     0.21465   0.59748   0.80856   0.00000  Uiso   1.00
C202   C     0.22377   0.63177   0.77965   0.00000  Uiso   1.00
C203   C     0.24853   0.61824   0.74403   0.00000  Uiso   1.00
C204   C     0.25735   0.53824   0.76539   0.00000  Uiso   1.00
C205   C     0.23276   0.55042   0.80199   0.00000  Uiso   1.00
Ni206  Ni    0.24629   0.46790   0.17842   0.00000  Uiso   1.00
C207   C     0.19740   0.53255   1.04534   0.00000  Uiso   1.00
C208   C     0.23644   0.54910   0.07180   0.00000  Uiso   1.00
C209   C     0.25079   0.52852   0.11158   0.00000  Uiso   1.00
C210   C     0.18964   0.47518   0.09939   0.00000  Uiso   1.00
C211   C     0.17401   0.49483   0.05931   0.00000  Uiso   1.00
H212   H     0.33819   0.46825   0.32477   0.00000  Uiso   1.00
H213   H     0.26958   0.33565   0.27524   0.00000  Uiso   1.00
H214   H     0.23443   0.37608   0.21042   0.00000  Uiso   1.00
H215   H     0.30100   0.50606   0.25891   0.00000  Uiso   1.00
N216   N     0.26606   0.44277   0.23177   0.00000  Uiso   1.00
N217   N     0.22708   0.49270   0.12479   0.00000  Uiso   1.00
H218   H     0.25512   0.57849   1.06244   0.00000  Uiso   1.00
H219   H     0.28054   0.54158   0.13237   0.00000  Uiso   1.00
H220   H     0.17158   0.44645   0.11064   0.00000  Uiso   1.00
H221   H     0.14342   0.48152   0.04012   0.00000  Uiso   1.00
C222   C     0.30664   0.39888   0.30533   0.00000  Uiso   1.00
C223   C     0.27589   0.37358   0.27339   0.00000  Uiso   1.00
C224   C     0.25603   0.39630   0.23654   0.00000  Uiso   1.00
C225   C     0.29347   0.46918   0.26370   0.00000  Uiso   1.00
C226   C     0.31425   0.44778   0.30110   0.00000  Uiso   1.00
Ni227  Ni    0.13895   0.24780   0.46291   0.00000  Uiso   1.00
C228   C     0.27837   0.30620   0.45243   0.00000  Uiso   1.00
C229   C     0.24677   0.33480   0.47466   0.00000  Uiso   1.00
C230   C     0.20512   0.31590   0.47809   0.00000  Uiso   1.00
C231   C     0.22551   0.24093   0.43993   0.00000  Uiso   1.00
C232   C     0.26768   0.25831   0.43580   0.00000  Uiso   1.00
H233   H    -0.02057   0.26862   0.48101   0.00000  Uiso   1.00
H234   H     0.03690   0.12511   0.49277   0.00000  Uiso   1.00
H235   H     0.10780   0.15424   0.47333   0.00000  Uiso   1.00
H236   H     0.05198   0.29461   0.46166   0.00000  Uiso   1.00
N237   N     0.08295   0.22555   0.46672   0.00000  Uiso   1.00
N238   N     0.19511   0.27015   0.46003   0.00000  Uiso   1.00
H239   H     0.25354   0.37192   0.48800   0.00000  Uiso   1.00
H240   H     0.18026   0.33804   0.49426   0.00000  Uiso   1.00
H241   H     0.21660   0.20450   0.42621   0.00000  Uiso   1.00
H242   H     0.29095   0.23513   0.41829   0.00000  Uiso   1.00
C243   C     0.00247   0.19471   0.48849   0.00000  Uiso   1.00
C244   C     0.03877   0.16214   0.48483   0.00000  Uiso   1.00
C245   C     0.07897   0.17844   0.47385   0.00000  Uiso   1.00
C246   C     0.04761   0.25724   0.46730   0.00000  Uiso   1.00
C247   C     0.00658   0.24240   0.47808   0.00000  Uiso   1.00
Ni248  Ni    1.01107   0.92229   0.71689   0.00000  Uiso   1.00
C249   C     0.95936   0.05131   0.63847   0.00000  Uiso   1.00
C250   C     0.93016   0.01695   0.64926   0.00000  Uiso   1.00
C251   C     0.94689  -0.02118   0.67337   0.00000  Uiso   1.00
C252   C     1.02060   0.00773   0.67710   0.00000  Uiso   1.00
C253   C     1.00517   0.04676   0.65284   0.00000  Uiso   1.00
H254   H     0.99851   0.75676   0.75964   0.00000  Uiso   1.00
H255   H     0.11266   0.83765   0.82422   0.00000  Uiso   1.00
H256   H     0.08681   0.90605   0.78092   0.00000  Uiso   1.00
H257   H     0.97511   0.82721   0.71763   0.00000  Uiso   1.00
N258   N     0.03003   0.86965   0.74729   0.00000  Uiso   1.00
N259   N     0.99136   0.97470   0.68650   0.00000  Uiso   1.00
H260   H     0.89468   0.01891   0.63837   0.00000  Uiso   1.00
H261   H     0.92445   0.95200   0.68123   0.00000  Uiso   1.00
H262   H     1.05587   1.00349   0.68804   0.00000  Uiso   1.00
H263   H     1.02867   0.07249   0.64493   0.00000  Uiso   1.00
C264   C     0.05754   0.79155   0.79528   0.00000  Uiso   1.00
C265   C     0.08246   0.83416   0.80090   0.00000  Uiso   1.00
C266   C     0.06800   0.87299   0.77644   0.00000  Uiso   1.00
C267   C     1.00533   0.82876   0.74094   0.00000  Uiso   1.00
C268   C     1.01860   0.78896   0.76476   0.00000  Uiso   1.00
Ni269  Ni    0.99545   0.39054   0.76726   0.00000  Uiso   1.00
C270   C     0.07303   0.52473   0.83499   0.00000  Uiso   1.00
C271   C     0.09523   0.48439   0.81502   0.00000  Uiso   1.00
C272   C     0.07072   0.44478   0.79430   0.00000  Uiso   1.00
C273   C     0.00284   0.48456   0.81042   0.00000  Uiso   1.00
C274   C     0.02614   0.52523   0.83146   0.00000  Uiso   1.00
H275   H     0.91893   0.30003   0.63568   0.00000  Uiso   1.00
H276   H     0.94435   0.21993   0.75220   0.00000  Uiso   1.00
H277   H     0.97742   0.29437   0.79500   0.00000  Uiso   1.00
H278   H     0.95206   0.37141   0.68027   0.00000  Uiso   1.00
N279   N     0.96611   0.33630   0.73945   0.00000  Uiso   1.00
N280   N     0.02553   0.44502   0.79340   0.00000  Uiso   1.00
H281   H     0.13138   0.48256   0.81720   0.00000  Uiso   1.00
H282   H     0.08780   0.41313   0.77990   0.00000  Uiso   1.00
H283   H    -0.03323   0.48404   0.80867   0.00000  Uiso   1.00
H284   H     0.00789   0.55545   0.84690   0.00000  Uiso   1.00
C285   C     0.92961   0.25388   0.69030   0.00000  Uiso   1.00
C286   C     0.94511   0.25297   0.73601   0.00000  Uiso   1.00
C287   C     0.96382   0.29503   0.76019   0.00000  Uiso   1.00
C288   C     0.94967   0.33825   0.69583   0.00000  Uiso   1.00
C289   C     0.93128   0.29753   0.67065   0.00000  Uiso   1.00
Ni290  Ni    0.88239   0.71996   1.03684   0.00000  Uiso   1.00
C291   C     0.73386   0.75280   0.05410   0.00000  Uiso   1.00
C292   C     0.76134   0.73174   0.08825   0.00000  Uiso   1.00
C293   C     0.80593   0.71932   0.08217   0.00000  Uiso   1.00
C294   C     0.79533   0.74418   1.00857   0.00000  Uiso   1.00
C295   C     0.75095   0.75730   1.01329   0.00000  Uiso   1.00
H296   H     0.02661   0.63200   1.02890   0.00000  Uiso   1.00
H297   H     1.01232   0.76867   0.97089   0.00000  Uiso   1.00
H298   H     0.93881   0.78061   0.99888   0.00000  Uiso   1.00
H299   H     0.95242   0.64689   0.05559   0.00000  Uiso   1.00
N300   N     0.94216   0.71435   1.02833   0.00000  Uiso   1.00
N301   N     0.82220   0.72705   1.04314   0.00000  Uiso   1.00
H302   H     0.74958   0.72824   0.12042   0.00000  Uiso   1.00
H303   H     0.82806   0.70579   0.10925   0.00000  Uiso   1.00
H304   H     0.80914   0.75009   0.97797   0.00000  Uiso   1.00
H305   H     0.73088   0.77335   0.98616   0.00000  Uiso   1.00
C306   C     0.02554   0.69921   0.99756   0.00000  Uiso   1.00
C307   C     1.00082   0.74210   0.99075   0.00000  Uiso   1.00
C308   C     0.95908   0.74896   1.00653   0.00000  Uiso   1.00
C309   C     0.96668   0.67404   1.03838   0.00000  Uiso   1.00
C310   C     1.00894   0.66587   1.02348   0.00000  Uiso   1.00
Ni311  Ni    0.53200   0.57324   0.27248   0.00000  Uiso   1.00
C312   C     0.56722   0.69597   0.19100   0.00000  Uiso   1.00
C313   C     0.53706   0.66012   0.17166   0.00000  Uiso   1.00
C314   C     0.52739   0.62286   0.19672   0.00000  Uiso   1.00
C315   C     0.57660   0.65540   0.25906   0.00000  Uiso   1.00
C316   C     0.58718   0.69336   0.23525   0.00000  Uiso   1.00
H317   H     0.46598   0.41784   0.29115   0.00000  Uiso   1.00
H318   H     0.49792   0.51439   0.41208   0.00000  Uiso   1.00
H319   H     0.52993   0.57053   0.36675   0.00000  Uiso   1.00
H320   H     0.49908   0.47632   0.24852   0.00000  Uiso   1.00
N321   N     0.51592   0.52593   0.30574   0.00000  Uiso   1.00
N322   N     0.54722   0.62122   0.23952   0.00000  Uiso   1.00
H323   H     0.52115   0.66084   0.13755   0.00000  Uiso   1.00
H324   H     0.50390   0.59528   0.18220   0.00000  Uiso   1.00
H325   H     0.59165   0.65322   0.29326   0.00000  Uiso   1.00
H326   H     0.61085   0.72018   0.25118   0.00000  Uiso   1.00
C327   C     0.47895   0.46156   0.35517   0.00000  Uiso   1.00
C328   C     0.49850   0.50447   0.37641   0.00000  Uiso   1.00
C329   C     0.51680   0.53636   0.35090   0.00000  Uiso   1.00
C330   C     0.49950   0.48348   0.28457   0.00000  Uiso   1.00
C331   C     0.48087   0.45039   0.30885   0.00000  Uiso   1.00
loop_
_geom_bond_atom_site_label_1
_geom_bond_atom_site_label_2
_geom_bond_distance
_geom_bond_site_symmetry_2
_ccdc_geom_bond_type
Pr0    O3      2.293   .     S
Pr0    O4      2.288   .     S
Pr0    O5      2.272   .     S
Pr0    O6      2.188   .     S
Pr0    O7      2.327   .     S
Pr0    O14     2.273   .     S
Pr0    O18     2.299   .     S
Pr1    O2      2.308   .     S
Pr1    O6      2.212   .     S
Pr1    O15     2.390   .     S
Pr1    O16     2.259   .     S
Pr1    O17     2.272   .     S
Pr1    O18     2.294   .     S
Pr1    O19     2.287   .     S
O2     C9      1.297   .     A
O3     C9      1.295   .     A
O4     C10     1.279   .     A
O5     C10     1.274   .     A
O6     C13     1.376   .     S
O7     C13     1.222   .     D
C8     O18     1.390   .     S
C8     O19     1.218   .     D
C8     C270    1.477   .     S
C9     C306    1.482   .     S
C10    C264    1.477   .     S
C11    O16     1.279   .     A
C11    O17     1.281   .     A
C11    C207    1.477   .     S
C12    O14     1.300   .     A
C12    O15     1.320   .     A
C12    C201    1.479   .     S
C13    C96     1.478   .     S
Pr20   O23     2.284   .     S
Pr20   O24     2.288   .     S
Pr20   O26     2.248   .     S
Pr20   O34     2.261   .     S
Pr20   O38     2.307   .     S
Pr20   O25     2.266   1_554 S
Pr20   O27     2.307   1_554 S
Pr21   O22     2.324   .     S
Pr21   O26     2.205   .     S
Pr21   O35     2.320   .     S
Pr21   O36     2.269   .     S
Pr21   O37     2.277   .     S
Pr21   O38     2.281   .     S
Pr21   O39     2.224   .     S
O22    C29     1.306   .     A
O23    C29     1.300   .     A
O24    C30     1.279   1_554 A
O25    C30     1.275   .     A
O25    Pr20    2.266   1_556 S
O26    C33     1.382   .     S
O27    Pr20    2.307   1_556 S
O27    C33     1.222   1_556 D
C28    O38     1.417   .     S
C28    O39     1.226   .     D
C28    C180    1.475   .     S
C29    C291    1.481   .     S
C30    C159    1.475   .     S
C30    O24     1.279   1_556 A
C31    O36     1.278   .     A
C31    O37     1.281   .     A
C31    C312    1.475   .     S
C32    O34     1.286   .     A
C32    O35     1.296   .     A
C32    C117    1.469   .     S
C33    C81     1.477   .     S
C33    O27     1.222   1_554 D
Pr40   O43     2.277   .     S
Pr40   O44     2.291   .     S
Pr40   O45     2.262   .     S
Pr40   O46     2.221   .     S
Pr40   O47     2.356   .     S
Pr40   O54     2.278   .     S
Pr40   O58     2.312   .     S
Pr41   O42     2.326   .     S
Pr41   O46     2.182   .     S
Pr41   O55     2.401   .     S
Pr41   O56     2.257   .     S
Pr41   O57     2.269   .     S
Pr41   O58     2.263   .     S
Pr41   O59     2.271   .     S
O42    C49     1.301   .     A
O43    C49     1.292   .     A
O44    C50     1.275   .     A
O45    C50     1.268   .     A
O46    C53     1.353   .     S
O47    C53     1.206   .     D
C48    O58     1.393   .     S
C48    O59     1.220   .     D
C48    C123    1.467   .     S
C49    C285    1.478   .     S
C50    C243    1.472   1_655 S
C51    O56     1.279   .     A
C51    O57     1.280   .     A
C51    C144    1.474   .     S
C52    O54     1.301   .     A
C52    O55     1.324   .     A
C52    C165    1.479   .     S
C53    C249    1.475   .     S
Pr60   O63     2.255   .     S
Pr60   O64     2.304   .     S
Pr60   O65     2.275   .     S
Pr60   O66     2.254   .     S
Pr60   O67     2.352   .     S
Pr60   O74     2.214   .     S
Pr60   O78     2.326   .     S
Pr61   O62     2.311   .     S
Pr61   O66     2.208   .     S
Pr61   O75     2.420   .     S
Pr61   O76     2.291   .     S
Pr61   O77     2.269   .     S
Pr61   O78     2.314   .     S
Pr61   O79     2.320   .     S
O62    C69     1.281   .     A
O63    C69     1.273   .     A
O64    C70     1.273   .     A
O65    C70     1.266   .     A
O66    C73     1.356   .     S
O67    C73     1.214   .     D
C68    O78     1.366   .     S
C68    O79     1.204   .     D
C68    C222    1.475   .     S
C69    C228    1.478   .     S
C70    C186    1.477   .     S
C71    O76     1.274   .     A
C71    O77     1.268   .     A
C71    C102    1.474   .     S
C72    O74     1.291   .     A
C72    O75     1.317   .     A
C72    C327    1.478   .     S
C73    C138    1.462   .     S
Ni80   N90     1.847   .     S
Ni80   N91     1.847   .     S
C81    C82     1.402   .     A
C81    C85     1.405   1_554 A
C82    C83     1.398   .     A
C82    H92     1.083   .     S
C83    H93     1.082   .     S
C83    N91     1.360   1_554 A
C84    C85     1.400   .     A
C84    N91     1.361   .     A
C84    H94     1.082   .     S
C85    H95     1.083   .     S
C85    C81     1.405   1_556 A
H86    C100    1.083   .     S
H87    C97     1.083   .     S
H88    C98     1.082   .     S
H89    C99     1.082   .     S
N90    C98     1.362   .     A
N90    C99     1.359   .     A
N91    C83     1.360   1_556 A
C96    C97     1.405   .     A
C96    C100    1.403   .     A
C97    C98     1.403   .     A
C99    C100    1.396   .     A
Ni101  N111    1.840   .     S
Ni101  N112    1.840   .     S
C102   C103    1.404   .     A
C102   C106    1.403   .     A
C103   C104    1.395   .     A
C103   H113    1.083   .     S
C104   N112    1.358   .     A
C104   H114    1.081   .     S
C105   C106    1.398   .     A
C105   N112    1.360   .     A
C105   H115    1.082   .     S
C106   H116    1.083   .     S
H107   C121    1.083   .     S
H108   C118    1.084   .     S
H109   C119    1.081   .     S
H110   C120    1.082   .     S
N111   C120    1.356   .     A
N111   C119    1.363   1_545 A
C117   C118    1.401   .     A
C117   C121    1.404   .     A
C118   C119    1.400   .     A
C119   N111    1.363   1_565 A
C120   C121    1.393   1_545 A
C121   C120    1.393   1_565 A
Ni122  N132    1.837   .     S
Ni122  N133    1.838   .     S
C123   C124    1.403   .     A
C123   C127    1.402   .     A
C124   C125    1.393   .     A
C124   H134    1.083   .     S
C125   N133    1.358   .     A
C125   H135    1.082   .     S
C126   C127    1.399   .     A
C126   N133    1.360   .     A
C126   H136    1.082   .     S
C127   H137    1.083   .     S
H128   C142    1.084   .     S
H129   C139    1.083   .     S
H130   C140    1.082   .     S
H131   C141    1.082   .     S
N132   C140    1.361   .     A
N132   C141    1.357   .     A
C138   C139    1.402   .     A
C138   C142    1.400   .     A
C139   C140    1.400   .     A
C141   C142    1.392   .     A
Ni143  N153    1.839   .     S
Ni143  N154    1.838   1_565 S
C144   C145    1.402   .     A
C144   C148    1.404   .     A
C145   C146    1.393   1_545 A
C145   H155    1.083   1_545 S
C146   H156    1.082   .     S
C146   C145    1.393   1_565 A
C146   N154    1.358   1_565 A
C147   C148    1.399   .     A
C147   N154    1.360   .     A
C147   H157    1.082   .     S
C148   H158    1.083   .     S
H149   C163    1.082   .     S
H150   C160    1.083   .     S
H151   C161    1.081   1_545 S
H152   C162    1.081   .     S
N153   C161    1.357   .     A
N153   C162    1.360   .     A
N154   Ni143   1.838   1_545 S
N154   C146    1.358   1_545 A
H155   C145    1.083   1_565 S
C159   C160    1.404   .     A
C159   C163    1.402   .     A
C160   C161    1.394   .     A
C161   H151    1.081   1_565 S
C162   C163    1.399   .     A
Ni164  N174    1.843   .     S
Ni164  N175    1.843   1_565 S
C165   C166    1.406   .     A
C165   C169    1.403   .     A
C166   C167    1.393   .     A
C166   H176    1.083   .     S
C167   N175    1.356   .     A
C167   H177    1.082   .     S
C168   C169    1.402   .     A
C168   N175    1.363   .     A
C168   H178    1.082   .     S
C169   H179    1.083   .     S
H170   C184    1.083   .     S
H171   C181    1.084   .     S
H172   C182    1.082   .     S
H173   C183    1.081   .     S
N174   C182    1.355   .     A
N174   C183    1.364   .     A
N175   Ni164   1.843   1_545 S
C180   C181    1.405   .     A
C180   C184    1.402   .     A
C181   C182    1.389   .     A
C183   C184    1.406   .     A
Ni185  N195    1.843   .     S
Ni185  N196    1.843   .     S
C186   C187    1.406   .     A
C186   C190    1.403   .     A
C187   C188    1.396   .     A
C187   H197    1.083   .     S
C188   N196    1.358   .     A
C188   H198    1.083   .     S
C189   C190    1.401   .     A
C189   N196    1.361   .     A
C189   H199    1.082   .     S
C190   H200    1.084   .     S
H191   C205    1.083   .     S
H192   C202    1.083   .     S
H193   C203    1.082   .     S
H194   C204    1.082   .     S
N195   C203    1.356   .     A
N195   C204    1.363   .     A
C201   C202    1.406   .     A
C201   C205    1.403   .     A
C202   C203    1.391   .     A
C204   C205    1.405   .     A
Ni206  N216    1.843   .     S
Ni206  N217    1.843   .     S
C207   C208    1.403   1_556 A
C207   C211    1.404   1_556 A
C208   C209    1.396   .     A
C208   C207    1.403   1_554 A
C208   H218    1.083   1_554 S
C209   N217    1.358   .     A
C209   H219    1.081   .     S
C210   C211    1.399   .     A
C210   N217    1.360   .     A
C210   H220    1.082   .     S
C211   H221    1.083   .     S
C211   C207    1.404   1_554 A
H212   C226    1.083   .     S
H213   C223    1.083   .     S
H214   C224    1.082   .     S
H215   C225    1.082   .     S
N216   C224    1.358   .     A
N216   C225    1.361   .     A
H218   C208    1.083   1_556 S
C222   C223    1.404   .     A
C222   C226    1.403   .     A
C223   C224    1.396   .     A
C225   C226    1.400   .     A
Ni227  N237    1.834   .     S
Ni227  N238    1.834   .     S
C228   C229    1.406   .     A
C228   C232    1.405   .     A
C229   C230    1.394   .     A
C229   H239    1.083   .     S
C230   N238    1.357   .     A
C230   H240    1.082   .     S
C231   C232    1.396   .     A
C231   N238    1.359   .     A
C231   H241    1.082   .     S
C232   H242    1.083   .     S
H233   C247    1.083   .     S
H234   C244    1.083   .     S
H235   C245    1.082   .     S
H236   C246    1.081   .     S
N237   C245    1.357   .     A
N237   C246    1.360   .     A
C243   C244    1.404   .     A
C243   C247    1.402   .     A
C243   C50     1.472   1_455 S
C244   C245    1.392   .     A
C246   C247    1.398   .     A
Ni248  N259    1.842   .     S
Ni248  N258    1.841   1_655 S
C249   C250    1.403   .     A
C249   C253    1.403   .     A
C250   C251    1.391   .     A
C250   H260    1.082   .     S
C251   N259    1.356   1_545 A
C251   H261    1.082   1_545 S
C252   C253    1.404   .     A
C252   N259    1.362   1_545 A
C252   H262    1.081   1_545 S
C253   H263    1.083   .     S
H254   C268    1.082   .     S
H255   C265    1.083   .     S
H256   C266    1.082   .     S
H257   C267    1.082   .     S
N258   C266    1.358   .     A
N258   Ni248   1.841   1_455 S
N258   C267    1.361   1_455 A
N259   C251    1.356   1_565 A
N259   C252    1.362   1_565 A
H261   C251    1.082   1_565 S
H262   C252    1.081   1_565 S
C264   C265    1.405   .     A
C264   C268    1.402   1_455 A
C265   C266    1.396   .     A
C267   C268    1.399   .     A
C267   N258    1.361   1_655 A
C268   C264    1.402   1_655 A
Ni269  N279    1.844   .     S
Ni269  N280    1.844   1_655 S
C270   C271    1.404   .     A
C270   C274    1.404   .     A
C271   C272    1.395   .     A
C271   H281    1.083   .     S
C272   N280    1.358   .     A
C272   H282    1.082   .     S
C273   C274    1.402   .     A
C273   N280    1.362   .     A
C273   H283    1.082   .     S
C274   H284    1.083   .     S
H275   C289    1.083   .     S
H276   C286    1.083   .     S
H277   C287    1.081   .     S
H278   C288    1.082   .     S
N279   C287    1.365   .     A
N279   C288    1.354   .     A
N280   Ni269   1.844   1_455 S
C285   C286    1.403   .     A
C285   C289    1.405   .     A
C286   C287    1.408   .     A
C288   C289    1.387   .     A
Ni290  N300    1.847   .     S
Ni290  N301    1.847   .     S
C291   C292    1.406   .     A
C291   C295    1.404   1_554 A
C292   C293    1.405   .     A
C292   H302    1.083   .     S
C293   H303    1.081   .     S
C293   N301    1.363   1_554 A
C294   C295    1.394   .     A
C294   N301    1.357   .     A
C294   H304    1.082   .     S
C295   H305    1.083   .     S
C295   C291    1.404   1_556 A
H296   C310    1.083   1_455 S
H297   C307    1.083   .     S
H298   C308    1.082   .     S
H299   C309    1.082   1_554 S
N300   C308    1.359   .     A
N300   C309    1.361   .     A
N301   C293    1.363   1_556 A
C306   C307    1.404   1_455 A
C306   C310    1.407   1_455 A
C307   C308    1.396   .     A
C307   C306    1.404   1_655 A
C309   C310    1.403   .     A
C309   H299    1.082   1_556 S
C310   H296    1.083   1_655 S
C310   C306    1.407   1_655 A
Ni311  N321    1.837   .     S
Ni311  N322    1.838   .     S
C312   C313    1.403   .     A
C312   C316    1.404   .     A
C313   C314    1.396   .     A
C313   H323    1.083   .     S
C314   N322    1.360   .     A
C314   H324    1.082   .     S
C315   C316    1.396   .     A
C315   N322    1.359   .     A
C315   H325    1.082   .     S
C316   H326    1.083   .     S
H317   C331    1.083   .     S
H318   C328    1.083   .     S
H319   C329    1.082   .     S
H320   C330    1.082   .     S
N321   C329    1.358   .     A
N321   C330    1.359   .     A
C327   C328    1.405   .     A
C327   C331    1.405   .     A
C328   C329    1.393   .     A
C330   C331    1.398   .     A
