data_lcy+N205+E15
_audit_creation_date              2025-01-21
_audit_creation_method            'Materials Studio'
_symmetry_space_group_name_H-M    'P1'
_symmetry_Int_Tables_number       1
_symmetry_cell_setting            triclinic
loop_
_symmetry_equiv_pos_as_xyz
  x,y,z
_cell_length_a                    18.1661
_cell_length_b                    18.2554
_cell_length_c                    18.0466
_cell_angle_alpha                 112.8486
_cell_angle_beta                  102.8788
_cell_angle_gamma                 102.5089
loop_
_atom_site_label
_atom_site_type_symbol
_atom_site_fract_x
_atom_site_fract_y
_atom_site_fract_z
_atom_site_U_iso_or_equiv
_atom_site_adp_type
_atom_site_occupancy
Y0     Y     0.20631   0.57489   0.88419   0.00000  Uiso   1.00
Y1     Y    -0.05438   0.60514   0.83067   0.00000  Uiso   1.00
C2     C     0.82681   0.59575   0.89607   0.00000  Uiso   1.00
C3     C     0.01544   0.46366   0.79985   0.00000  Uiso   1.00
C4     C     0.23799   0.58572   1.04079   0.00000  Uiso   1.00
C5     C     0.30174   0.55343   0.78917   0.00000  Uiso   1.00
C6     C     0.12641   0.71009   0.92575   0.00000  Uiso   1.00
C7     C     0.94565   0.65988   0.71178   0.00000  Uiso   1.00
O8     O    -0.10028   0.63676   0.94129   0.00000  Uiso   1.00
O9     O     0.81494   0.56154   0.81661   0.00000  Uiso   1.00
O10    O     0.07351   0.53069   0.82643   0.00000  Uiso   1.00
O11    O    -0.05291   0.47131   0.78822   0.00000  Uiso   1.00
O12    O     0.25969   0.64849   1.02706   0.00000  Uiso   1.00
O13    O     0.20690   0.51581   0.97349   0.00000  Uiso   1.00
O14    O     0.24694   0.49308   0.78333   0.00000  Uiso   1.00
O15    O     0.30762   0.62556   0.84457   0.00000  Uiso   1.00
O16    O     0.05934   0.70884   0.93608   0.00000  Uiso   1.00
O17    O     0.12822   0.64914   0.86147   0.00000  Uiso   1.00
O18    O     0.89799   0.66732   0.75317   0.00000  Uiso   1.00
O19    O    -0.00880   0.62120   0.72926   0.00000  Uiso   1.00
Y20    Y     0.51184   0.97476   0.24225   0.00000  Uiso   1.00
Y21    Y     0.55351   0.79980  -0.02770   0.00000  Uiso   1.00
C22    C     0.60492   0.67024  -0.03561   0.00000  Uiso   1.00
C23    C     0.64491   0.93254   0.16111   0.00000  Uiso   1.00
C24    C     0.55304   0.93488   0.36965   0.00000  Uiso   1.00
C25    C     0.46219   1.10603   0.25660   0.00000  Uiso   1.00
C26    C     0.41693   0.83019   0.04696   0.00000  Uiso   1.00
C27    C     0.58456   0.83547  -0.15001   0.00000  Uiso   1.00
O28    O     0.60542   0.72591   0.03289   0.00000  Uiso   1.00
O29    O     0.56886   0.67587  -0.10031   0.00000  Uiso   1.00
O30    O     0.58455   0.95708   0.15570   0.00000  Uiso   1.00
O31    O     0.65815   0.89348   0.09280   0.00000  Uiso   1.00
O32    O     0.48324   0.90354   0.31475   0.00000  Uiso   1.00
O33    O     0.60088   0.99076   0.36174   0.00000  Uiso   1.00
O34    O     0.53511   1.11124   0.27418   0.00000  Uiso   1.00
O35    O     0.41454   1.03275   0.23253   0.00000  Uiso   1.00
O36    O     0.42942   0.79427  -0.02282   0.00000  Uiso   1.00
O37    O     0.47601   0.86220   0.11544   0.00000  Uiso   1.00
O38    O     0.61549   0.88814  -0.07177   0.00000  Uiso   1.00
O39    O     0.53286   0.76881   0.83534   0.00000  Uiso   1.00
Y40    Y     0.98517   0.14977   0.53093   0.00000  Uiso   1.00
Y41    Y     0.84863  -0.01472   0.62842   0.00000  Uiso   1.00
C42    C     0.91497   0.86380   0.60779   0.00000  Uiso   1.00
C43    C     0.82912  -0.00772   0.44553   0.00000  Uiso   1.00
C44    C     0.13800   0.17846   0.53387   0.00000  Uiso   1.00
C45    C     0.89504   0.24189   0.50201   0.00000  Uiso   1.00
C46    C     0.96096   0.15539   0.69664   0.00000  Uiso   1.00
C47    C     0.73825   0.93930   0.69293   0.00000  Uiso   1.00
O48    O     0.95625  -0.05855   0.64782   0.00000  Uiso   1.00
O49    O     0.84250   0.85014   0.57156   0.00000  Uiso   1.00
O50    O     0.90357   0.01422   0.45470   0.00000  Uiso   1.00
O51    O     0.80246  -0.00205   0.50694   0.00000  Uiso   1.00
O52    O     0.11957   0.21036   0.60014   0.00000  Uiso   1.00
O53    O     1.07774   0.13441   0.46600   0.00000  Uiso   1.00
O54    O     0.91059   0.18768   0.44460   0.00000  Uiso   1.00
O55    O     0.93223   0.25412   0.57557   0.00000  Uiso   1.00
O56    O     0.91731   0.11934   0.72604   0.00000  Uiso   1.00
O57    O     0.96552   0.10869   0.62619   0.00000  Uiso   1.00
O58    O     0.72145   0.92565   0.61577   0.00000  Uiso   1.00
O59    O     0.80959  -0.01261   0.73927   0.00000  Uiso   1.00
Y60    Y     0.53718   0.39828   0.53183   0.00000  Uiso   1.00
Y61    Y     0.43406   0.56371   0.41520   0.00000  Uiso   1.00
C62    C     0.53305   0.71427   0.44742   0.00000  Uiso   1.00
C63    C     0.46269   0.54062   0.59311   0.00000  Uiso   1.00
C64    C     0.66738   0.35724   0.50865   0.00000  Uiso   1.00
C65    C     0.41172   0.28449   0.52749   0.00000  Uiso   1.00
C66    C     0.46800   0.40264   0.35779   0.00000  Uiso   1.00
C67    C     0.30301   0.55536   0.30523   0.00000  Uiso   1.00
O68    O     0.55296   0.67418   0.48781   0.00000  Uiso   1.00
O69    O     0.46784   0.67356   0.38806   0.00000  Uiso   1.00
O70    O     0.53119   0.53035   0.59446   0.00000  Uiso   1.00
O71    O     0.41977   0.55338   0.53471   0.00000  Uiso   1.00
O72    O     0.60516   0.34201   0.45023   0.00000  Uiso   1.00
O73    O     0.66467   0.39707   0.58294   0.00000  Uiso   1.00
O74    O     0.41021   0.30677   0.46955   0.00000  Uiso   1.00
O75    O     0.47989   0.31624   0.58502   0.00000  Uiso   1.00
O76    O     0.44348   0.44416   0.32270   0.00000  Uiso   1.00
O77    O     0.50739   0.44406   0.43698   0.00000  Uiso   1.00
O78    O     0.32309   0.59945   0.38569   0.00000  Uiso   1.00
O79    O     0.34110   0.50480   0.28475   0.00000  Uiso   1.00
N80    N     0.22501   0.80840   0.07423   0.00000  Uiso   1.00
N81    N     0.30476   0.84078   0.10748   0.00000  Uiso   1.00
C82    C     0.33469   0.82992   0.04319   0.00000  Uiso   1.00
C83    C     0.27150   0.79018   0.96694   0.00000  Uiso   1.00
C84    C     0.20351   0.77474   0.98843   0.00000  Uiso   1.00
H85    H     0.27460   0.76447   0.90308   0.00000  Uiso   1.00
H86    H     0.18697   0.80089   0.10874   0.00000  Uiso   1.00
H87    H     0.33757   0.86208   0.17170   0.00000  Uiso   1.00
N88    N     0.36295   0.18154   0.26707   0.00000  Uiso   1.00
N89    N     0.36535   0.26079   0.29405   0.00000  Uiso   1.00
C90    C     0.44027   0.31002   0.31114   0.00000  Uiso   1.00
C91    C     0.48640   0.25947   0.29026   0.00000  Uiso   1.00
C92    C     0.43638   0.17914   0.26627   0.00000  Uiso   1.00
H93    H     0.54862   0.27878   0.29587   0.00000  Uiso   1.00
H94    H     0.31349   0.13115   0.25470   0.00000  Uiso   1.00
H95    H     0.31770   0.28149   0.30535   0.00000  Uiso   1.00
N96    N     0.72185   0.27638   0.40460   0.00000  Uiso   1.00
N97    N     0.78226   0.24775   0.40203   0.00000  Uiso   1.00
C98    C     0.83174   0.27681   0.48236   0.00000  Uiso   1.00
C99    C     0.80186   0.32826   0.53900   0.00000  Uiso   1.00
C100   C     0.73163   0.32598   0.48630   0.00000  Uiso   1.00
H101   H     0.82445   0.35747   0.60806   0.00000  Uiso   1.00
H102   H     0.67325   0.25948   0.35046   0.00000  Uiso   1.00
H103   H     0.78547   0.20367   0.34616   0.00000  Uiso   1.00
N104   N     0.63357   0.77745   0.73215   0.00000  Uiso   1.00
N105   N     0.68016   0.80604   0.69626   0.00000  Uiso   1.00
C106   C     0.68755   0.88792   0.71967   0.00000  Uiso   1.00
C107   C     0.65138   0.91477   0.78037   0.00000  Uiso   1.00
C108   C     0.61559   0.84190   0.78419   0.00000  Uiso   1.00
H109   H     0.64802   0.97720   0.81421   0.00000  Uiso   1.00
H110   H     0.62167   0.71722   0.72823   0.00000  Uiso   1.00
H111   H     0.70620   0.77002   0.65614   0.00000  Uiso   1.00
N112   N     0.66503   0.86042   0.25062   0.00000  Uiso   1.00
N113   N     0.71496   0.87523   0.32426   0.00000  Uiso   1.00
C114   C     0.76972   0.95280   0.35945   0.00000  Uiso   1.00
C115   C     0.75420   0.98958   0.30595   0.00000  Uiso   1.00
C116   C     0.68685   0.92882   0.23803   0.00000  Uiso   1.00
H117   H     0.78612   1.05144   0.31500   0.00000  Uiso   1.00
H118   H     0.61544   0.80532   0.21117   0.00000  Uiso   1.00
H119   H     0.71098   0.83329   0.35073   0.00000  Uiso   1.00
N120   N     0.39696   0.48465   0.74306   0.00000  Uiso   1.00
N121   N     0.44139   0.48325   0.69444   0.00000  Uiso   1.00
C122   C     0.42964   0.53431   0.65923   0.00000  Uiso   1.00
C123   C     0.37707   0.57282   0.68991   0.00000  Uiso   1.00
C124   C     0.35791   0.53901   0.74275   0.00000  Uiso   1.00
H125   H     0.35432   0.61670   0.67404   0.00000  Uiso   1.00
H126   H     0.39490   0.44956   0.77706   0.00000  Uiso   1.00
H127   H     0.47415   0.44319   0.67967   0.00000  Uiso   1.00
N128   N     0.25863   0.65555   0.26132   0.00000  Uiso   1.00
N129   N     0.24750   0.66579   0.19166   0.00000  Uiso   1.00
C130   C     0.24350   0.59469   0.12656   0.00000  Uiso   1.00
C131   C     0.24860   0.53518   0.15496   0.00000  Uiso   1.00
C132   C     0.25923   0.57647   0.24176   0.00000  Uiso   1.00
H133   H     0.25232   0.47353   0.11953   0.00000  Uiso   1.00
H134   H     0.27153   0.70422   0.32215   0.00000  Uiso   1.00
H135   H     0.24698   0.72241   0.19041   0.00000  Uiso   1.00
N136   N     0.26798   0.15420   0.57052   0.00000  Uiso   1.00
N137   N     0.34040   0.18134   0.56796   0.00000  Uiso   1.00
C138   C     0.34003   0.23297   0.53136   0.00000  Uiso   1.00
C139   C     0.26456   0.23964   0.51000   0.00000  Uiso   1.00
C140   C     0.22109   0.18914   0.53661   0.00000  Uiso   1.00
H141   H     0.24499   0.27903   0.48311   0.00000  Uiso   1.00
H142   H     0.25196   0.11417   0.59706   0.00000  Uiso   1.00
H143   H     0.38875   0.16483   0.59125   0.00000  Uiso   1.00
N144   N     0.02563   0.73943   0.65558   0.00000  Uiso   1.00
N145   N     0.01915   0.79768   0.63040   0.00000  Uiso   1.00
C146   C     0.94282   0.79630   0.61392   0.00000  Uiso   1.00
C147   C     0.89907   0.73505   0.62926   0.00000  Uiso   1.00
C148   C     0.95420   0.70169   0.65769   0.00000  Uiso   1.00
H149   H     0.83910   0.72582   0.63247   0.00000  Uiso   1.00
H150   H     0.08023   0.73231   0.67953   0.00000  Uiso   1.00
H151   H     0.06724   0.84151   0.63128   0.00000  Uiso   1.00
N152   N     0.08009   0.28470   0.76295   0.00000  Uiso   1.00
N153   N     0.09468   0.36659   0.79123   0.00000  Uiso   1.00
C154   C     0.02514   0.38189   0.78562   0.00000  Uiso   1.00
C155   C     0.96358   0.30674   0.75541   0.00000  Uiso   1.00
C156   C     1.00095   0.24679   0.74005   0.00000  Uiso   1.00
H157   H     0.90009   0.29653   0.74059   0.00000  Uiso   1.00
H158   H     0.12359   0.25555   0.75887   0.00000  Uiso   1.00
H159   H     0.15126   0.41039   0.81309   0.00000  Uiso   1.00
N160   N     0.77421   0.61367   0.01520   0.00000  Uiso   1.00
N161   N     0.71067   0.62919   0.03269   0.00000  Uiso   1.00
C162   C     0.65719   0.61914  -0.03868   0.00000  Uiso   1.00
C163   C     0.68662   0.59168   0.89458   0.00000  Uiso   1.00
C164   C     0.76201   0.59230   0.93225   0.00000  Uiso   1.00
H165   H     0.66489   0.59039   0.83282   0.00000  Uiso   1.00
H166   H     0.82783   0.62569   0.06109   0.00000  Uiso   1.00
H167   H     0.70938   0.65762   0.09474   0.00000  Uiso   1.00
N168   N     0.55980   0.86583   0.52744   0.00000  Uiso   1.00
N169   N     0.56435   0.92717   0.50534   0.00000  Uiso   1.00
C170   C     0.57727   0.90267   0.43036   0.00000  Uiso   1.00
C171   C     0.58241   0.82277   0.40494   0.00000  Uiso   1.00
C172   C     0.57339   0.80182   0.46879   0.00000  Uiso   1.00
H173   H     0.57301   0.77821   0.34033   0.00000  Uiso   1.00
H174   H     0.53452   0.86169   0.57315   0.00000  Uiso   1.00
H175   H     0.54834   0.97992   0.53512   0.00000  Uiso   1.00
loop_
_geom_bond_atom_site_label_1
_geom_bond_atom_site_label_2
_geom_bond_distance
_geom_bond_site_symmetry_2
_ccdc_geom_bond_type
Y0     O10     2.223   .     S
Y0     O12     2.241   .     S
Y0     O13     2.260   .     S
Y0     O14     2.248   .     S
Y0     O15     2.262   .     S
Y0     O17     2.241   .     S
Y1     O8      2.252   .     S
Y1     O11     2.267   .     S
Y1     O16     2.286   .     S
Y1     O19     2.260   .     S
Y1     O9      2.256   1_455 S
Y1     O18     2.261   1_455 S
C2     O9      1.265   .     A
C2     C164    1.469   .     S
C2     O8      1.263   1_655 A
C3     O10     1.265   .     A
C3     O11     1.260   .     A
C3     C154    1.470   .     S
C4     O12     1.264   .     A
C4     O13     1.265   .     A
C4     C130    1.470   1_556 S
C5     O14     1.267   .     A
C5     O15     1.270   .     A
C5     C124    1.462   .     S
C6     O16     1.270   .     A
C6     O17     1.271   .     A
C6     C84     1.475   .     S
C7     O18     1.260   .     A
C7     C148    1.468   .     S
C7     O19     1.262   1_655 A
O8     C2      1.263   1_455 A
O9     Y1      2.256   1_655 S
O18    Y1      2.261   1_655 S
O19    C7      1.262   1_455 A
Y20    O30     2.236   .     S
Y20    O32     2.237   .     S
Y20    O33     2.259   .     S
Y20    O34     2.245   .     S
Y20    O35     2.257   .     S
Y20    O37     2.233   .     S
Y21    O28     2.267   .     S
Y21    O29     2.247   .     S
Y21    O31     2.264   .     S
Y21    O36     2.258   .     S
Y21    O38     2.261   .     S
Y21    O39     2.231   1_554 S
C22    O28     1.256   .     A
C22    O29     1.259   .     A
C22    C162    1.463   .     S
C23    O30     1.270   .     A
C23    O31     1.269   .     A
C23    C116    1.462   .     S
C24    O32     1.266   .     A
C24    O33     1.265   .     A
C24    C170    1.462   .     S
C25    O34     1.265   .     A
C25    O35     1.268   .     A
C25    C92     1.469   1_565 S
C26    O36     1.272   .     A
C26    O37     1.264   .     A
C26    C82     1.479   .     S
C27    O38     1.262   .     A
C27    O39     1.256   1_554 A
C27    C108    1.456   1_554 S
O39    Y21     2.231   1_556 S
O39    C27     1.256   1_556 A
Y40    O50     2.252   .     S
Y40    O53     2.260   .     S
Y40    O54     2.246   .     S
Y40    O55     2.269   .     S
Y40    O57     2.192   .     S
Y40    O52     2.268   1_655 S
Y41    O48     2.275   .     S
Y41    O51     2.285   .     S
Y41    O56     2.236   .     S
Y41    O59     2.256   .     S
Y41    O49     2.240   1_545 S
Y41    O58     2.249   1_545 S
C42    O49     1.253   .     A
C42    C146    1.462   .     S
C42    O48     1.263   1_565 A
C43    O50     1.277   .     A
C43    O51     1.283   .     A
C43    C114    1.464   1_545 S
C44    O52     1.266   .     A
C44    C140    1.466   .     S
C44    O53     1.265   1_455 A
C45    O54     1.260   .     A
C45    O55     1.254   .     A
C45    C98     1.472   .     S
C46    O56     1.255   .     A
C46    O57     1.259   .     A
C46    C156    1.460   .     S
C47    O58     1.266   .     A
C47    C106    1.462   .     S
C47    O59     1.266   1_565 A
O48    C42     1.263   1_545 A
O49    Y41     2.240   1_565 S
O52    Y40     2.268   1_455 S
O53    C44     1.265   1_655 A
O58    Y41     2.249   1_565 S
O59    C47     1.266   1_545 A
Y60    O70     2.270   .     S
Y60    O72     2.221   .     S
Y60    O73     2.302   .     S
Y60    O74     2.256   .     S
Y60    O75     2.266   .     S
Y60    O77     2.194   .     S
Y61    O68     2.291   .     S
Y61    O69     2.236   .     S
Y61    O71     2.302   .     S
Y61    O76     2.245   .     S
Y61    O78     2.266   .     S
Y61    O79     2.242   .     S
C62    O68     1.269   .     A
C62    O69     1.240   .     A
C62    C172    1.459   .     S
C63    O70     1.294   .     A
C63    O71     1.295   .     A
C63    C122    1.481   .     S
C64    O72     1.254   .     A
C64    O73     1.272   .     A
C64    C100    1.473   .     S
C65    O74     1.258   .     A
C65    O75     1.263   .     A
C65    C138    1.465   .     S
C66    O76     1.252   .     A
C66    O77     1.264   .     A
C66    C90     1.469   .     S
C67    O78     1.272   .     A
C67    O79     1.262   .     A
C67    C132    1.471   .     S
N80    N81     1.332   .     A
N80    H86     1.049   .     S
N80    C84     1.347   1_554 A
N81    C82     1.353   .     A
N81    H87     1.045   .     S
C82    C83     1.378   1_554 A
C83    C84     1.379   .     A
C83    H85     1.083   .     S
C83    C82     1.378   1_556 A
C84    N80     1.347   1_556 A
N88    N89     1.322   .     A
N88    C92     1.347   .     A
N88    H94     1.047   .     S
N89    C90     1.350   .     A
N89    H95     1.046   .     S
C90    C91     1.379   .     A
C91    C92     1.385   .     A
C91    H93     1.077   .     S
C92    C25     1.469   1_545 S
N96    N97     1.316   .     A
N96    C100    1.342   .     A
N96    H102    1.045   .     S
N97    C98     1.344   .     A
N97    H103    1.041   .     S
C98    C99     1.394   .     A
C99    C100    1.393   .     A
C99    H101    1.080   .     S
N104   N105    1.313   .     A
N104   C108    1.348   .     A
N104   H110    1.044   .     S
N105   C106    1.352   .     A
N105   H111    1.048   .     S
C106   C107    1.384   .     A
C107   C108    1.383   .     A
C107   H109    1.087   .     S
C108   C27     1.456   1_556 S
N112   N113    1.319   .     A
N112   C116    1.347   .     A
N112   H118    1.047   .     S
N113   C114    1.345   .     A
N113   H119    1.046   .     S
C114   C115    1.388   .     A
C114   C43     1.464   1_565 S
C115   C116    1.385   .     A
C115   H117    1.081   .     S
N120   N121    1.315   .     A
N120   C124    1.340   .     A
N120   H126    1.046   .     S
N121   C122    1.343   .     A
N121   H127    1.033   .     S
C122   C123    1.392   .     A
C123   C124    1.387   .     A
C123   H125    1.079   .     S
N128   N129    1.320   .     A
N128   C132    1.350   .     A
N128   H134    1.043   .     S
N129   C130    1.344   .     A
N129   H135    1.045   .     S
C130   C131    1.381   .     A
C130   C4      1.470   1_554 S
C131   C132    1.394   .     A
C131   H133    1.083   .     S
N136   N137    1.319   .     A
N136   C140    1.346   .     A
N136   H142    1.044   .     S
N137   C138    1.345   .     A
N137   H143    1.043   .     S
C138   C139    1.384   .     A
C139   C140    1.379   .     A
C139   H141    1.088   .     S
N144   N145    1.326   .     A
N144   H150    1.047   .     S
N144   C148    1.347   1_455 A
N145   H151    1.041   .     S
N145   C146    1.344   1_455 A
C146   C147    1.383   .     A
C146   N145    1.344   1_655 A
C147   C148    1.384   .     A
C147   H149    1.084   .     S
C148   N144    1.347   1_655 A
N152   N153    1.320   .     A
N152   H158    1.044   .     S
N152   C156    1.341   1_455 A
N153   C154    1.342   .     A
N153   H159    1.034   .     S
C154   C155    1.383   1_455 A
C155   C156    1.381   .     A
C155   H157    1.080   .     S
C155   C154    1.383   1_655 A
C156   N152    1.341   1_655 A
N160   N161    1.322   .     A
N160   H166    1.044   .     S
N160   C164    1.343   1_554 A
N161   C162    1.348   .     A
N161   H167    1.044   .     S
C162   C163    1.386   1_554 A
C163   C164    1.382   .     A
C163   H165    1.085   .     S
C163   C162    1.386   1_556 A
C164   N160    1.343   1_556 A
N168   N169    1.320   .     A
N168   C172    1.352   .     A
N168   H174    1.048   .     S
N169   C170    1.343   .     A
N169   H175    1.044   .     S
C170   C171    1.380   .     A
C171   C172    1.379   .     A
C171   H173    1.079   .     S
