data_lcy+N123+E183
_audit_creation_date              2025-01-21
_audit_creation_method            'Materials Studio'
_symmetry_space_group_name_H-M    'P1'
_symmetry_Int_Tables_number       1
_symmetry_cell_setting            triclinic
loop_
_symmetry_equiv_pos_as_xyz
  x,y,z
_cell_length_a                    23.9448
_cell_length_b                    19.6398
_cell_length_c                    22.3105
_cell_angle_alpha                 93.1409
_cell_angle_beta                  107.2843
_cell_angle_gamma                 92.7477
loop_
_atom_site_label
_atom_site_type_symbol
_atom_site_fract_x
_atom_site_fract_y
_atom_site_fract_z
_atom_site_U_iso_or_equiv
_atom_site_adp_type
_atom_site_occupancy
Ce0    Ce    0.19395   0.63436   0.85090   0.00000  Uiso   1.00
Ce1    Ce    0.09648   0.66120   0.94418   0.00000  Uiso   1.00
C2     C     0.21112   0.71571   0.98916   0.00000  Uiso   1.00
C3     C     0.24180   0.59764   0.75766   0.00000  Uiso   1.00
C4     C     0.11533   0.75618   0.82323   0.00000  Uiso   1.00
C5     C     0.08394   0.55860   0.82200   0.00000  Uiso   1.00
C6     C     0.01572   0.66612   0.00105   0.00000  Uiso   1.00
C7     C     0.21217   0.55202   0.95459   0.00000  Uiso   1.00
O8     O     0.18333   0.69452   0.02314   0.00000  Uiso   1.00
O9     O     0.17716   0.71561   0.92717   0.00000  Uiso   1.00
O10    O     0.25832   0.65274   0.79216   0.00000  Uiso   1.00
O11    O     0.20255   0.56250   0.77162   0.00000  Uiso   1.00
O12    O     0.13770   0.71338   0.79339   0.00000  Uiso   1.00
O13    O     0.11493   0.74795   0.88042   0.00000  Uiso   1.00
O14    O     0.10597   0.57976   0.78429   0.00000  Uiso   1.00
O15    O     0.11938   0.57746   0.88141   0.00000  Uiso   1.00
O16    O     1.03950   0.60978  -0.00599   0.00000  Uiso   1.00
O17    O     0.03783   0.72094  -0.01556   0.00000  Uiso   1.00
O18    O     0.16773   0.58859   0.93322   0.00000  Uiso   1.00
O19    O     0.24390   0.55286   0.91846   0.00000  Uiso   1.00
Ce20   Ce    0.58787   0.91354   0.11011   0.00000  Uiso   1.00
Ce21   Ce    0.66178   0.79719   0.09594   0.00000  Uiso   1.00
C22    C     0.54179   0.76602   0.05889   0.00000  Uiso   1.00
C23    C     0.52883   0.02173   0.12852   0.00000  Uiso   1.00
C24    C     0.66906   0.92995   0.01674   0.00000  Uiso   1.00
C25    C     0.67916   0.94434   0.21087   0.00000  Uiso   1.00
C26    C     0.73522   0.70561   0.07950   0.00000  Uiso   1.00
C27    C     0.59231   0.78923   0.20222   0.00000  Uiso   1.00
O28    O     0.57723   0.72984   0.09026   0.00000  Uiso   1.00
O29    O     0.56865   0.82167   0.04141   0.00000  Uiso   1.00
O30    O     0.50597  -0.02623   0.08588   0.00000  Uiso   1.00
O31    O     0.58188   0.01517   0.16105   0.00000  Uiso   1.00
O32    O     0.63286   0.96010   0.04096   0.00000  Uiso   1.00
O33    O     0.68757   0.87023   0.03075   0.00000  Uiso   1.00
O34    O     0.64117   0.98490   0.19318   0.00000  Uiso   1.00
O35    O     0.67509   0.88735   0.16893   0.00000  Uiso   1.00
O36    O     0.74690   0.74534   0.12963   0.00000  Uiso   1.00
O37    O     0.68296   0.70551   0.04226   0.00000  Uiso   1.00
O38    O     0.62750   0.75936   0.17591   0.00000  Uiso   1.00
O39    O     0.56625   0.84438   0.18304   0.00000  Uiso   1.00
Ce40   Ce    0.89074   0.14254   0.56264   0.00000  Uiso   1.00
Ce41   Ce    0.82913   0.11483   0.67096   0.00000  Uiso   1.00
C42    C     0.79568   0.03284   0.55870   0.00000  Uiso   1.00
C43    C     0.95785   0.16070   0.48604   0.00000  Uiso   1.00
C44    C     0.96187   0.06554   0.68890   0.00000  Uiso   1.00
C45    C     0.92190   0.23196   0.66976   0.00000  Uiso   1.00
C46    C     0.77825   0.07688   0.75852   0.00000  Uiso   1.00
C47    C     0.75266   0.18389   0.54448   0.00000  Uiso   1.00
O48    O     0.76134   0.05065   0.58540   0.00000  Uiso   1.00
O49    O     0.85134   0.05219   0.59402   0.00000  Uiso   1.00
O50    O     0.93543   0.10277   0.49197   0.00000  Uiso   1.00
O51    O     0.94247   0.21090   0.51461   0.00000  Uiso   1.00
O52    O     0.96337   0.09032   0.63638   0.00000  Uiso   1.00
O53    O     0.91998   0.07308   0.71405   0.00000  Uiso   1.00
O54    O     0.95680   0.20360   0.64957   0.00000  Uiso   1.00
O55    O     0.86591   0.20936   0.63644   0.00000  Uiso   1.00
O56    O     0.79219   0.13938   0.75357   0.00000  Uiso   1.00
O57    O     0.78798   0.03530   0.71763   0.00000  Uiso   1.00
O58    O     0.75325   0.16057   0.59813   0.00000  Uiso   1.00
O59    O     0.79667   0.18395   0.52070   0.00000  Uiso   1.00
Ce60   Ce    0.41685   0.42510   0.39049   0.00000  Uiso   1.00
Ce61   Ce    0.32146   0.31418   0.38681   0.00000  Uiso   1.00
C62    C     0.43611   0.27584   0.43101   0.00000  Uiso   1.00
C63    C     0.48305   0.53687   0.38049   0.00000  Uiso   1.00
C64    C     0.32997   0.45304   0.47668   0.00000  Uiso   1.00
C65    C     0.32853   0.45159   0.28941   0.00000  Uiso   1.00
C66    C     0.22508   0.23576   0.38129   0.00000  Uiso   1.00
C67    C     0.40298   0.29045   0.29202   0.00000  Uiso   1.00
O68    O     0.39612   0.23965   0.39543   0.00000  Uiso   1.00
O69    O     0.41700   0.33598   0.45013   0.00000  Uiso   1.00
O70    O     0.50184   0.49578   0.42320   0.00000  Uiso   1.00
O71    O     0.43206   0.52034   0.34293   0.00000  Uiso   1.00
O72    O     0.37338   0.47859   0.45956   0.00000  Uiso   1.00
O73    O     0.30150   0.39563   0.45312   0.00000  Uiso   1.00
O74    O     0.36855   0.49404   0.31536   0.00000  Uiso   1.00
O75    O     0.33277   0.39044   0.31847   0.00000  Uiso   1.00
O76    O     0.22747   0.27462   0.33809   0.00000  Uiso   1.00
O77    O     0.27408   0.22986   0.42340   0.00000  Uiso   1.00
O78    O     0.36020   0.26526   0.31152   0.00000  Uiso   1.00
O79    O     0.43316   0.34831   0.31461   0.00000  Uiso   1.00
C80    C     0.47797   0.75497   0.04565   0.00000  Uiso   1.00
C81    C     0.37989   0.72360   0.05231   0.00000  Uiso   1.00
C82    C     0.37256   0.76700   1.00576   0.00000  Uiso   1.00
S83    S     0.31961   0.69099   0.06873   0.00000  Uiso   1.00
S84    S     0.30355   0.78386   0.96481   0.00000  Uiso   1.00
S85    S     0.44902   0.70351   0.09043   0.00000  Uiso   1.00
S86    S     0.43252   0.79967   0.98914   0.00000  Uiso   1.00
C87    C     0.27435   0.73291   1.00947   0.00000  Uiso   1.00
C88    C     0.42048   0.24652   0.24628   0.00000  Uiso   1.00
C89    C     0.43300   0.14223   0.18857   0.00000  Uiso   1.00
C90    C     0.47794   0.18720   0.18867   0.00000  Uiso   1.00
S91    S     0.43242   0.06068   0.15978   0.00000  Uiso   1.00
S92    S     0.53105   0.15880   0.15974   0.00000  Uiso   1.00
S93    S     0.38311   0.16788   0.22307   0.00000  Uiso   1.00
S94    S     0.48194   0.26670   0.22426   0.00000  Uiso   1.00
C95    C     0.49668   0.07836   0.14287   0.00000  Uiso   1.00
C96    C     0.69689   0.21029   0.50955   0.00000  Uiso   1.00
C97    C     0.59105   0.20844   0.45511   0.00000  Uiso   1.00
C98    C     0.60453   0.26502   0.49570   0.00000  Uiso   1.00
S99    S     0.51942   0.18909   0.41340   0.00000  Uiso   1.00
S100   S     0.54964   0.31339   0.50201   0.00000  Uiso   1.00
S101   S     0.64623   0.15792   0.45258   0.00000  Uiso   1.00
S102   S     0.67496   0.28201   0.54111   0.00000  Uiso   1.00
C103   C     0.49800   0.25952   0.44833   0.00000  Uiso   1.00
C104   C     0.75565   0.05231   0.80844   0.00000  Uiso   1.00
C105   C     0.71290   0.03939   0.89470   0.00000  Uiso   1.00
C106   C     0.73299   0.97811   0.88333   0.00000  Uiso   1.00
S107   S     0.67945   0.04646   0.95221   0.00000  Uiso   1.00
S108   S     0.72551   0.91326   0.92728   0.00000  Uiso   1.00
S109   S     0.72262   0.10453   0.85044   0.00000  Uiso   1.00
S110   S     0.76473   0.96886   0.82564   0.00000  Uiso   1.00
C111   C     0.69017   0.96244  -0.03132   0.00000  Uiso   1.00
C112   C     0.77975   0.00562   0.49303   0.00000  Uiso   1.00
C113   C     0.76903  -0.00205   0.38059   0.00000  Uiso   1.00
C114   C     0.73244   0.94752   0.38990   0.00000  Uiso   1.00
S115   S     0.76750   0.01327   0.30611   0.00000  Uiso   1.00
S116   S     0.68937   0.90007   0.32616   0.00000  Uiso   1.00
S117   S     0.81024   0.04729   0.44362   0.00000  Uiso   1.00
S118   S     0.72790   0.93932   0.46380   0.00000  Uiso   1.00
C119   C     0.71477   0.94832   0.27646   0.00000  Uiso   1.00
C120   C     0.31301   0.48721   0.52875   0.00000  Uiso   1.00
C121   C     0.27288   0.50262   0.61696   0.00000  Uiso   1.00
C122   C     0.30461   0.56181   0.61743   0.00000  Uiso   1.00
S123   S     0.23863   0.49337   0.67200   0.00000  Uiso   1.00
S124   S     0.30662   0.62474   0.67405   0.00000  Uiso   1.00
S125   S     0.26956   0.43952   0.56185   0.00000  Uiso   1.00
S126   S     0.33948   0.56855   0.56110   0.00000  Uiso   1.00
C127   C     0.26329   0.57398   0.70551   0.00000  Uiso   1.00
C128   C     0.22799   0.52128   0.01605   0.00000  Uiso   1.00
C129   C     0.23639   0.49596   0.12490   0.00000  Uiso   1.00
C130   C     0.28183   0.46704   0.11092   0.00000  Uiso   1.00
S131   S     0.23339   0.49704   0.20016   0.00000  Uiso   1.00
S132   S     0.33178   0.43135   0.16892   0.00000  Uiso   1.00
S133   S     0.18844   0.53572   0.06785   0.00000  Uiso   1.00
S134   S     0.28845   0.47343   0.03772   0.00000  Uiso   1.00
C135   C     0.29678   0.45586   0.22302   0.00000  Uiso   1.00
C136   C     0.16872   0.20928   0.38710   0.00000  Uiso   1.00
C137   C     0.07130   0.21240   0.40123   0.00000  Uiso   1.00
C138   C     0.09527   0.15669   0.42929   0.00000  Uiso   1.00
S139   S     0.00667   0.23574   0.41028   0.00000  Uiso   1.00
S140   S     0.05727   0.11102   0.46825   0.00000  Uiso   1.00
S141   S     0.11013   0.25931   0.36409   0.00000  Uiso   1.00
S142   S     0.16432   0.14001   0.42941   0.00000  Uiso   1.00
C143   C     0.00301   0.16761   0.45377   0.00000  Uiso   1.00
C144   C     1.00745   1.02004   0.71886   0.00000  Uiso   1.00
C145   C     0.05228   0.93248   0.78751   0.00000  Uiso   1.00
C146   C     1.06267   0.91686   0.73199   0.00000  Uiso   1.00
S147   S     0.07104   0.87788   0.84457   0.00000  Uiso   1.00
S148   S     1.09359   0.84203   0.72297   0.00000  Uiso   1.00
S149   S     1.01606   1.00244   0.79538   0.00000  Uiso   1.00
S150   S     1.03816   0.96946   0.67311   0.00000  Uiso   1.00
C151   C     0.09518   0.82149   0.79768   0.00000  Uiso   1.00
C152   C     0.03797   0.50276   0.80614   0.00000  Uiso   1.00
C153   C     0.96543   0.41642   0.73991   0.00000  Uiso   1.00
C154   C     0.99980   0.38287   0.78729   0.00000  Uiso   1.00
S155   S     0.91504   0.36974   0.68025   0.00000  Uiso   1.00
S156   S     0.99287   0.29600   0.78197   0.00000  Uiso   1.00
S157   S    -0.01903   0.50149   0.73785   0.00000  Uiso   1.00
S158   S     1.05328   0.42914   0.84428   0.00000  Uiso   1.00
C159   C     0.93814   0.29439   0.71174   0.00000  Uiso   1.00
C160   C     0.78189   0.67626   0.05934   0.00000  Uiso   1.00
C161   C     0.88155   0.65025   0.06366   0.00000  Uiso   1.00
C162   C     0.85910   0.68111   1.00941   0.00000  Uiso   1.00
S163   S     0.95263   0.62937   0.08235   0.00000  Uiso   1.00
S164   S     0.90358   0.70153   0.96615   0.00000  Uiso   1.00
S165   S     0.83855   0.63957   0.11132   0.00000  Uiso   1.00
S166   S     0.78894   0.70228   0.98982   0.00000  Uiso   1.00
C167   C     0.96149   0.66735   0.01792   0.00000  Uiso   1.00
C168   C     0.57918   0.75467   0.25351   0.00000  Uiso   1.00
C169   C     0.57644   0.66757   0.32642   0.00000  Uiso   1.00
C170   C     0.52643   0.70053   0.31776   0.00000  Uiso   1.00
S171   S     0.58408   0.59515   0.36526   0.00000  Uiso   1.00
S172   S     0.47418   0.66708   0.34614   0.00000  Uiso   1.00
S173   S     0.62441   0.69361   0.28912   0.00000  Uiso   1.00
S174   S     0.51519   0.76681   0.27089   0.00000  Uiso   1.00
C175   C     0.51489   0.59888   0.37173   0.00000  Uiso   1.00
loop_
_geom_bond_atom_site_label_1
_geom_bond_atom_site_label_2
_geom_bond_distance
_geom_bond_site_symmetry_2
_ccdc_geom_bond_type
Ce0    O9      2.403   .     S
Ce0    O10     2.328   .     S
Ce0    O11     2.266   .     S
Ce0    O12     2.294   .     S
Ce0    O14     2.355   .     S
Ce0    O15     2.348   .     S
Ce0    O19     2.375   .     S
Ce1    O9      2.302   .     S
Ce1    O13     2.385   .     S
Ce1    O15     2.293   .     S
Ce1    O18     2.334   .     S
Ce1    O8      2.329   1_556 S
Ce1    O16     2.238   1_456 S
Ce1    O17     2.224   1_556 S
C2     O9      1.380   .     S
C2     C87     1.462   .     S
C2     O8      1.224   1_556 D
C3     O10     1.268   .     A
C3     O11     1.262   .     A
C3     C127    1.468   .     S
C4     O12     1.277   .     A
C4     O13     1.298   .     A
C4     C151    1.476   .     S
C5     O14     1.200   .     D
C5     O15     1.365   .     S
C5     C152    1.466   .     S
C6     O17     1.297   .     A
C6     O16     1.291   1_455 A
C6     C167    1.456   1_455 S
C7     O18     1.298   .     A
C7     O19     1.262   .     A
C7     C128    1.480   1_556 S
O8     Ce1     2.329   1_554 S
O8     C2      1.224   1_554 D
O16    Ce1     2.238   1_654 S
O16    C6      1.291   1_655 A
O17    Ce1     2.224   1_554 S
Ce20   O29     2.240   .     S
Ce20   O32     2.329   .     S
Ce20   O34     2.273   .     S
Ce20   O35     2.213   .     S
Ce20   O39     2.331   .     S
Ce20   O30     2.280   1_565 S
Ce20   O31     2.274   1_565 S
Ce21   O28     2.332   .     S
Ce21   O29     2.289   .     S
Ce21   O33     2.287   .     S
Ce21   O35     2.283   .     S
Ce21   O36     2.264   .     S
Ce21   O37     2.268   .     S
Ce21   O38     2.316   .     S
C22    O28     1.214   .     D
C22    O29     1.374   .     S
C22    C80     1.470   .     S
C23    O30     1.279   .     A
C23    O31     1.279   .     A
C23    C95     1.457   .     S
C24    O32     1.299   .     A
C24    O33     1.295   .     A
C24    C111    1.476   .     S
C25    O34     1.228   .     D
C25    O35     1.399   .     S
C25    C119    1.454   .     S
C26    O36     1.279   .     A
C26    O37     1.280   .     A
C26    C160    1.455   .     S
C27    O38     1.305   .     A
C27    O39     1.305   .     A
C27    C168    1.465   .     S
O30    Ce20    2.280   1_545 S
O31    Ce20    2.274   1_545 S
Ce40   O49     2.213   .     S
Ce40   O50     2.278   .     S
Ce40   O51     2.296   .     S
Ce40   O52     2.332   .     S
Ce40   O54     2.333   .     S
Ce40   O55     2.282   .     S
Ce40   O59     2.370   .     S
Ce41   O48     2.359   .     S
Ce41   O49     2.262   .     S
Ce41   O53     2.312   .     S
Ce41   O55     2.284   .     S
Ce41   O56     2.307   .     S
Ce41   O57     2.266   .     S
Ce41   O58     2.304   .     S
C42    O48     1.204   .     D
C42    O49     1.355   .     S
C42    C112    1.463   .     S
C43    O50     1.265   .     A
C43    O51     1.273   .     A
C43    C143    1.472   1_655 S
C44    O52     1.303   .     A
C44    O53     1.297   .     A
C44    C144    1.470   1_545 S
C45    O54     1.205   .     D
C45    O55     1.364   .     S
C45    C159    1.464   .     S
C46    O56     1.276   .     A
C46    O57     1.272   .     A
C46    C104    1.469   .     S
C47    O58     1.301   .     A
C47    O59     1.313   .     A
C47    C96     1.467   .     S
Ce60   O69     2.255   .     S
Ce60   O70     2.310   .     S
Ce60   O71     2.267   .     S
Ce60   O72     2.333   .     S
Ce60   O74     2.286   .     S
Ce60   O75     2.219   .     S
Ce60   O79     2.337   .     S
Ce61   O68     2.335   .     S
Ce61   O69     2.309   .     S
Ce61   O73     2.282   .     S
Ce61   O75     2.258   .     S
Ce61   O76     2.266   .     S
Ce61   O77     2.283   .     S
Ce61   O78     2.332   .     S
C62    O68     1.214   .     D
C62    O69     1.378   .     S
C62    C103    1.472   .     S
C63    O70     1.275   .     A
C63    O71     1.274   .     A
C63    C175    1.459   .     S
C64    O72     1.298   .     A
C64    O73     1.289   .     A
C64    C120    1.478   .     S
C65    O74     1.220   .     D
C65    O75     1.390   .     S
C65    C135    1.459   .     S
C66    O76     1.274   .     A
C66    O77     1.282   .     A
C66    C136    1.467   .     S
C67    O78     1.313   .     A
C67    O79     1.308   .     A
C67    C88     1.467   .     S
C80    S85     1.719   .     A
C80    S86     1.715   1_554 A
C81    S83     1.697   .     A
C81    S85     1.698   .     A
C81    C82     1.356   1_554 A
C82    S84     1.692   .     A
C82    S86     1.692   .     A
C82    C81     1.356   1_556 A
S83    C87     1.719   1_554 A
S84    C87     1.714   .     A
S86    C80     1.715   1_556 A
C87    S83     1.719   1_556 A
C88    S93     1.720   .     A
C88    S94     1.720   .     A
C89    C90     1.358   .     A
C89    S91     1.690   .     A
C89    S93     1.684   .     A
C90    S92     1.691   .     A
C90    S94     1.698   .     A
S91    C95     1.714   .     A
S92    C95     1.715   .     A
C96    S101    1.722   .     A
C96    S102    1.714   .     A
C97    C98     1.357   .     A
C97    S99     1.704   .     A
C97    S101    1.702   .     A
C98    S100    1.692   .     A
C98    S102    1.696   .     A
S99    C103    1.724   .     A
S100   C103    1.714   .     A
C104   S109    1.723   .     A
C104   S110    1.713   1_545 A
C105   S107    1.706   .     A
C105   S109    1.706   .     A
C105   C106    1.356   1_545 A
C106   S108    1.684   .     A
C106   S110    1.684   .     A
C106   C105    1.356   1_565 A
S107   C111    1.725   1_546 A
S108   C111    1.717   1_556 A
S110   C104    1.713   1_565 A
C111   S107    1.725   1_564 A
C111   S108    1.717   1_554 A
C112   S117    1.714   .     A
C112   S118    1.713   1_545 A
C113   S115    1.695   .     A
C113   S117    1.681   .     A
C113   C114    1.356   1_545 A
C114   S116    1.687   .     A
C114   S118    1.700   .     A
C114   C113    1.356   1_565 A
S115   C119    1.708   1_545 A
S116   C119    1.720   .     A
S118   C112    1.713   1_565 A
C119   S115    1.708   1_565 A
C120   S125    1.716   .     A
C120   S126    1.726   .     A
C121   C122    1.356   .     A
C121   S123    1.680   .     A
C121   S125    1.679   .     A
C122   S124    1.707   .     A
C122   S126    1.710   .     A
S123   C127    1.712   .     A
S124   C127    1.724   .     A
C128   S133    1.719   .     A
C128   S134    1.725   .     A
C128   C7      1.480   1_554 S
C129   C130    1.358   .     A
C129   S131    1.701   .     A
C129   S133    1.696   .     A
C130   S132    1.690   .     A
C130   S134    1.698   .     A
S131   C135    1.709   .     A
S132   C135    1.723   .     A
C136   S141    1.719   .     A
C136   S142    1.714   .     A
C137   C138    1.356   .     A
C137   S139    1.700   .     A
C137   S141    1.691   .     A
C138   S140    1.693   .     A
C138   S142    1.700   .     A
S139   C143    1.709   .     A
S140   C143    1.719   .     A
C143   C43     1.472   1_455 S
C144   S149    1.714   .     A
C144   S150    1.724   .     A
C144   C44     1.470   1_565 S
C145   S147    1.682   .     A
C145   C146    1.356   1_455 A
C145   S149    1.688   1_455 A
C146   S148    1.705   .     A
C146   S150    1.699   .     A
C146   C145    1.356   1_655 A
S147   C151    1.717   .     A
S148   C151    1.726   1_655 A
S149   C145    1.688   1_655 A
C151   S148    1.726   1_455 A
C152   S157    1.715   .     A
C152   S158    1.718   1_455 A
C153   C154    1.356   .     A
C153   S155    1.695   .     A
C153   S157    1.700   1_655 A
C154   S156    1.700   .     A
C154   S158    1.696   .     A
S155   C159    1.718   .     A
S156   C159    1.716   .     A
S157   C153    1.700   1_455 A
S158   C152    1.718   1_655 A
C160   S165    1.719   .     A
C160   S166    1.712   1_554 A
C161   S163    1.704   .     A
C161   S165    1.700   .     A
C161   C162    1.359   1_554 A
C162   S164    1.685   .     A
C162   S166    1.684   .     A
C162   C161    1.359   1_556 A
S163   C167    1.718   .     A
S164   C167    1.712   1_556 A
S166   C160    1.712   1_556 A
C167   S164    1.712   1_554 A
C167   C6      1.456   1_655 S
C168   S173    1.720   .     A
C168   S174    1.713   .     A
C169   C170    1.357   .     A
C169   S171    1.695   .     A
C169   S173    1.683   .     A
C170   S172    1.684   .     A
C170   S174    1.696   .     A
S171   C175    1.710   .     A
S172   C175    1.717   .     A
