data_lcy+N248+E191
_audit_creation_date              2025-01-21
_audit_creation_method            'Materials Studio'
_symmetry_space_group_name_H-M    'P1'
_symmetry_Int_Tables_number       1
_symmetry_cell_setting            triclinic
loop_
_symmetry_equiv_pos_as_xyz
  x,y,z
_cell_length_a                    29.2486
_cell_length_b                    29.5014
_cell_length_c                    28.7326
_cell_angle_alpha                 89.4253
_cell_angle_beta                  88.1966
_cell_angle_gamma                 88.9898
loop_
_atom_site_label
_atom_site_type_symbol
_atom_site_fract_x
_atom_site_fract_y
_atom_site_fract_z
_atom_site_U_iso_or_equiv
_atom_site_adp_type
_atom_site_occupancy
O0     O     0.15038   0.66791   0.92833   0.00000  Uiso   1.00
Yb1    Yb    0.15908   0.58770   0.84696   0.00000  Uiso   1.00
C2     C     0.21423   0.55395   0.78826   0.00000  Uiso   1.00
Yb3    Yb    0.09286   0.62387   0.91189   0.00000  Uiso   1.00
O4     O     0.20147   0.63879   0.87326   0.00000  Uiso   1.00
C5     C     0.07678   0.67511   0.84024   0.00000  Uiso   1.00
C6     C     0.19077   0.66630   0.90704   0.00000  Uiso   1.00
O7     O     0.04088   0.67399   0.92427   0.00000  Uiso   1.00
C8     C     0.03152   0.65968   0.96554   0.00000  Uiso   1.00
O9     O     0.20093   0.53835   0.88480   0.00000  Uiso   1.00
O10    O     0.13966   0.56967   0.91695   0.00000  Uiso   1.00
O11    O     0.10574   0.54284   0.83269   0.00000  Uiso   1.00
O12    O     0.05637   0.62611   0.97894   0.00000  Uiso   1.00
O13    O     0.04989   0.57146   0.88337   0.00000  Uiso   1.00
C14    C     0.17910   0.54382   0.92170   0.00000  Uiso   1.00
C15    C     0.06546   0.54176   0.85301   0.00000  Uiso   1.00
O16    O     0.21216   0.53861   0.83026   0.00000  Uiso   1.00
O17    O     0.18892   0.58832   0.77956   0.00000  Uiso   1.00
O18    O     0.05472   0.67658   0.87723   0.00000  Uiso   1.00
O19    O     0.11075   0.64133   0.83947   0.00000  Uiso   1.00
O20    O     0.67691   0.95565   0.09585   0.00000  Uiso   1.00
Yb21   Yb    0.59529   0.87777   0.08696   0.00000  Uiso   1.00
C22    C     0.53590   0.84509   0.03555   0.00000  Uiso   1.00
Yb23   Yb    0.65706   0.91055   0.15306   0.00000  Uiso   1.00
O24    O     0.62631   0.92847   0.04253   0.00000  Uiso   1.00
C25    C     0.58928   0.96552   0.16835   0.00000  Uiso   1.00
C26    C     0.65950   0.95465   0.05443   0.00000  Uiso   1.00
O27    O     0.66646   0.95640   0.20908   0.00000  Uiso   1.00
C28    C     0.70652   0.94081   0.21738   0.00000  Uiso   1.00
O29    O     0.62826   0.82292   0.04815   0.00000  Uiso   1.00
O30    O     0.66464   0.85933   0.10228   0.00000  Uiso   1.00
O31    O     0.57679   0.83244   0.14253   0.00000  Uiso   1.00
O32    O     0.72121   0.91027   0.18895   0.00000  Uiso   1.00
O33    O     0.62619   0.85787   0.19673   0.00000  Uiso   1.00
C34    C     0.66463   0.82643   0.06810   0.00000  Uiso   1.00
C35    C     0.59535   0.83009   0.18283   0.00000  Uiso   1.00
O36    O     0.57763   0.83066   0.03307   0.00000  Uiso   1.00
O37    O     0.52862   0.87965   0.06113   0.00000  Uiso   1.00
O38    O     0.62394   0.96476   0.19127   0.00000  Uiso   1.00
O39    O     0.58837   0.93169   0.13490   0.00000  Uiso   1.00
O40    O     0.93350   0.16034   0.69979   0.00000  Uiso   1.00
Yb41   Yb    0.84040   0.16568   0.63146   0.00000  Uiso   1.00
C42    C     0.78362   0.22292   0.60104   0.00000  Uiso   1.00
Yb43   Yb    0.90833   0.10037   0.66528   0.00000  Uiso   1.00
O44    O     0.87543   0.20884   0.67703   0.00000  Uiso   1.00
C45    C     0.82703   0.07820   0.69192   0.00000  Uiso   1.00
C46    C     0.91173   0.19954   0.70044   0.00000  Uiso   1.00
O47    O     0.92475   0.05543   0.72003   0.00000  Uiso   1.00
C48    C     0.95830   0.03819   0.69650   0.00000  Uiso   1.00
O49    O     0.87940   0.20412   0.57874   0.00000  Uiso   1.00
O50    O     0.90171   0.13850   0.60377   0.00000  Uiso   1.00
O51    O     0.81891   0.11138   0.58873   0.00000  Uiso   1.00
O52    O     0.96855   0.05838   0.65794   0.00000  Uiso   1.00
O53    O     0.87224   0.05787   0.61277   0.00000  Uiso   1.00
C54    C     0.91260   0.17833   0.58108   0.00000  Uiso   1.00
C55    C     0.83933   0.07190   0.58507   0.00000  Uiso   1.00
O56    O     0.82211   0.21525   0.57970   0.00000  Uiso   1.00
O57    O     0.77779   0.20174   0.63961   0.00000  Uiso   1.00
O58    O     0.85313   0.05216   0.67078   0.00000  Uiso   1.00
O59    O     0.84236   0.12230   0.69173   0.00000  Uiso   1.00
O60    O     0.39960   0.31862   0.41569   0.00000  Uiso   1.00
Yb61   Yb    0.40779   0.40047   0.33235   0.00000  Uiso   1.00
C62    C     0.45953   0.46331   0.30272   0.00000  Uiso   1.00
Yb63   Yb    0.34234   0.33693   0.37162   0.00000  Uiso   1.00
O64    O     0.45001   0.37103   0.38411   0.00000  Uiso   1.00
C65    C     0.32730   0.40740   0.42322   0.00000  Uiso   1.00
C66    C     0.43979   0.33744   0.41197   0.00000  Uiso   1.00
O67    O     0.29012   0.32902   0.42411   0.00000  Uiso   1.00
C68    C     0.27930   0.28960   0.41069   0.00000  Uiso   1.00
O69    O     0.45170   0.36166   0.28404   0.00000  Uiso   1.00
O70    O     0.38945   0.33247   0.31366   0.00000  Uiso   1.00
O71    O     0.35305   0.41661   0.28670   0.00000  Uiso   1.00
O72    O     0.30489   0.27380   0.37735   0.00000  Uiso   1.00
O73    O     0.29878   0.36857   0.31959   0.00000  Uiso   1.00
C74    C     0.43100   0.32616   0.29013   0.00000  Uiso   1.00
C75    C     0.31271   0.39841   0.28844   0.00000  Uiso   1.00
O76    O     0.46131   0.42400   0.28397   0.00000  Uiso   1.00
O77    O     0.43297   0.46658   0.33827   0.00000  Uiso   1.00
O78    O     0.30587   0.37228   0.42798   0.00000  Uiso   1.00
O79    O     0.35932   0.40437   0.38685   0.00000  Uiso   1.00
Ni80   Ni    0.36472   0.75594   0.96794   0.00000  Uiso   1.00
C81    C     0.49706   0.82073   1.01693   0.00000  Uiso   1.00
C82    C     0.45926   0.81393   0.04721   0.00000  Uiso   1.00
C83    C     0.42081   0.79255   0.03150   0.00000  Uiso   1.00
C84    C     0.45584   0.78395   0.95643   0.00000  Uiso   1.00
C85    C     0.49586   0.80465   0.97114   0.00000  Uiso   1.00
H86    H     0.20840   0.69809   0.99513   0.00000  Uiso   1.00
H87    H     0.26149   0.69734   0.85285   0.00000  Uiso   1.00
H88    H     0.33240   0.73073   0.87949   0.00000  Uiso   1.00
H89    H     0.28121   0.73205   1.01843   0.00000  Uiso   1.00
N90    N     0.30961   0.73345   0.94983   0.00000  Uiso   1.00
N91    N     0.41934   0.77881   0.98670   0.00000  Uiso   1.00
H92    H     0.45950   0.82526   0.08299   0.00000  Uiso   1.00
H93    H     0.39139   0.78786   0.05473   0.00000  Uiso   1.00
H94    H     0.45342   0.77296   0.92073   0.00000  Uiso   1.00
H95    H     0.52447   0.80947   0.94677   0.00000  Uiso   1.00
C96    C     0.22857   0.69532   0.92183   0.00000  Uiso   1.00
C97    C     0.26407   0.70556   0.88935   0.00000  Uiso   1.00
C98    C     0.30442   0.72445   0.90416   0.00000  Uiso   1.00
C99    C     0.27555   0.72525   0.98209   0.00000  Uiso   1.00
C100   C     0.23424   0.70632   0.96873   0.00000  Uiso   1.00
Ni101  Ni    0.49320   0.14055   0.21749   0.00000  Uiso   1.00
C102   C     0.44652   0.28140   0.27210   0.00000  Uiso   1.00
C103   C     0.42020   0.24290   0.28214   0.00000  Uiso   1.00
C104   C     0.43464   0.20053   0.26534   0.00000  Uiso   1.00
C105   C     0.50075   0.23294   0.22983   0.00000  Uiso   1.00
C106   C     0.48760   0.27601   0.24598   0.00000  Uiso   1.00
H107   H     0.50733   0.97295   0.21704   0.00000  Uiso   1.00
H108   H     0.60376   0.04691   0.13028   0.00000  Uiso   1.00
H109   H     0.56331   0.11806   0.15182   0.00000  Uiso   1.00
H110   H     0.46814   0.04613   0.23690   0.00000  Uiso   1.00
N111   N     0.51404   0.08534   0.19520   0.00000  Uiso   1.00
N112   N     0.47413   0.19646   0.23946   0.00000  Uiso   1.00
H113   H     0.38884   0.24547   0.30304   0.00000  Uiso   1.00
H114   H     0.41451   0.17082   0.27306   0.00000  Uiso   1.00
H115   H     0.53234   0.22839   0.20967   0.00000  Uiso   1.00
H116   H     0.50935   0.30458   0.23821   0.00000  Uiso   1.00
C117   C     0.55774   1.00450   0.17121   0.00000  Uiso   1.00
C118   C     0.57287   0.04566   0.15211   0.00000  Uiso   1.00
C119   C     0.55035   0.08592   0.16456   0.00000  Uiso   1.00
C120   C     0.49708   0.04560   0.21247   0.00000  Uiso   1.00
C121   C     0.51885   1.00425   0.20089   0.00000  Uiso   1.00
Ni122  Ni    0.61212   0.29134   0.51344   0.00000  Uiso   1.00
C123   C     0.74647   0.25057   0.58131   0.00000  Uiso   1.00
C124   C     0.74626   0.26061   0.53348   0.00000  Uiso   1.00
C125   C     0.70571   0.27629   0.51388   0.00000  Uiso   1.00
C126   C     0.66760   0.27612   0.58797   0.00000  Uiso   1.00
C127   C     0.70717   0.26031   0.60895   0.00000  Uiso   1.00
H128   H     0.52247   0.31710   0.37586   0.00000  Uiso   1.00
H129   H     0.44454   0.31760   0.50620   0.00000  Uiso   1.00
H130   H     0.51674   0.29942   0.54692   0.00000  Uiso   1.00
H131   H     0.59197   0.29937   0.41892   0.00000  Uiso   1.00
N132   N     0.55753   0.29992   0.48463   0.00000  Uiso   1.00
N133   N     0.66720   0.28208   0.54112   0.00000  Uiso   1.00
H134   H     0.77589   0.25330   0.51101   0.00000  Uiso   1.00
H135   H     0.70411   0.28127   0.47659   0.00000  Uiso   1.00
H136   H     0.63637   0.28104   0.60859   0.00000  Uiso   1.00
H137   H     0.70613   0.25303   0.64599   0.00000  Uiso   1.00
C138   C     0.47832   0.31916   0.43798   0.00000  Uiso   1.00
C139   C     0.47640   0.31303   0.48642   0.00000  Uiso   1.00
C140   C     0.51712   0.30334   0.50941   0.00000  Uiso   1.00
C141   C     0.55945   0.30331   0.43755   0.00000  Uiso   1.00
C142   C     0.52012   0.31308   0.41343   0.00000  Uiso   1.00
Ni143  Ni    0.73239   0.02943   0.87269   0.00000  Uiso   1.00
C144   C     0.79268   0.06223   0.72655   0.00000  Uiso   1.00
C145   C     0.76284   0.09351   0.74883   0.00000  Uiso   1.00
C146   C     0.74263   0.08234   0.79215   0.00000  Uiso   1.00
C147   C     0.77865   0.00969   0.79035   0.00000  Uiso   1.00
C148   C     0.79889   0.01913   0.74684   0.00000  Uiso   1.00
H149   H     0.61663   0.01615  -0.00059   0.00000  Uiso   1.00
H150   H     0.74807   0.95284   0.02359   0.00000  Uiso   1.00
H151   H     0.77631   0.98359   0.94781   0.00000  Uiso   1.00
H152   H     0.64781   0.04651   0.92452   0.00000  Uiso   1.00
N153   N     0.71325   1.01607   0.93275   0.00000  Uiso   1.00
N154   N     0.75215   0.04156   0.81251   0.00000  Uiso   1.00
H155   H     0.75777   0.12727   0.73449   0.00000  Uiso   1.00
H156   H     0.72113   0.10696   0.81049   0.00000  Uiso   1.00
H157   H     0.78604  -0.02223   0.80770   0.00000  Uiso   1.00
H158   H     0.82273  -0.00547   0.73161   0.00000  Uiso   1.00
C159   C     0.68008   0.98236   0.01707   0.00000  Uiso   1.00
C160   C     0.72588   0.97453   0.00317   0.00000  Uiso   1.00
C161   C     0.74182   0.99164   0.96028   0.00000  Uiso   1.00
C162   C     0.66964   0.02668   0.94700   0.00000  Uiso   1.00
C163   C     0.65212   1.00967   0.98928   0.00000  Uiso   1.00
Ni164  Ni    0.78534  -0.00762   0.40238   0.00000  Uiso   1.00
C165   C     0.82421   0.04308   0.54679   0.00000  Uiso   1.00
C166   C     0.85478   0.01391   0.52234   0.00000  Uiso   1.00
C167   C     0.84223  -0.00368   0.47938   0.00000  Uiso   1.00
C168   C     0.76970   0.03311   0.48629   0.00000  Uiso   1.00
C169   C     0.78071   0.05132   0.52884   0.00000  Uiso   1.00
H170   H     0.78604   0.90598   0.25506   0.00000  Uiso   1.00
H171   H     0.68163   0.01023   0.27425   0.00000  Uiso   1.00
H172   H     0.71509   0.02953   0.34854   0.00000  Uiso   1.00
H173   H     0.81755   0.92792   0.33077   0.00000  Uiso   1.00
N174   N     0.76738   0.97929   0.34320   0.00000  Uiso   1.00
N175   N     0.80072   0.00735   0.46188   0.00000  Uiso   1.00
H176   H     0.88888   0.00720   0.53461   0.00000  Uiso   1.00
H177   H     0.86619   0.97553   0.45918   0.00000  Uiso   1.00
H178   H     0.73699   0.04130   0.47147   0.00000  Uiso   1.00
H179   H     0.75619   0.07379   0.54632   0.00000  Uiso   1.00
C180   C     0.73094   0.95609   0.25864   0.00000  Uiso   1.00
C181   C     0.71177   0.99173   0.28528   0.00000  Uiso   1.00
C182   C     0.73062   0.00284   0.32746   0.00000  Uiso   1.00
C183   C     0.78804   0.94579   0.31749   0.00000  Uiso   1.00
C184   C     0.77021   0.93353   0.27464   0.00000  Uiso   1.00
Ni185  Ni    0.28879   0.49985   0.60083   0.00000  Uiso   1.00
C186   C     0.32032   0.44439   0.45616   0.00000  Uiso   1.00
C187   C     0.35680   0.45872   0.48238   0.00000  Uiso   1.00
C188   C     0.34724   0.48028   0.52481   0.00000  Uiso   1.00
C189   C     0.26751   0.47811   0.51216   0.00000  Uiso   1.00
C190   C     0.27537   0.45590   0.47015   0.00000  Uiso   1.00
H191   H     0.29917   0.57463   0.75340   0.00000  Uiso   1.00
H192   H     0.18353   0.48842   0.73519   0.00000  Uiso   1.00
H193   H     0.21426   0.46963   0.65673   0.00000  Uiso   1.00
H194   H     0.32822   0.55328   0.67427   0.00000  Uiso   1.00
N195   N     0.27237   0.51065   0.66206   0.00000  Uiso   1.00
N196   N     0.30303   0.48765   0.53953   0.00000  Uiso   1.00
H197   H     0.39162   0.44873   0.47295   0.00000  Uiso   1.00
H198   H     0.37472   0.48712   0.54790   0.00000  Uiso   1.00
H199   H     0.23287   0.48292   0.52551   0.00000  Uiso   1.00
H200   H     0.24652   0.44419   0.45099   0.00000  Uiso   1.00
C201   C     0.23982   0.53200   0.75042   0.00000  Uiso   1.00
C202   C     0.21637   0.50152   0.72337   0.00000  Uiso   1.00
C203   C     0.23327   0.49142   0.67885   0.00000  Uiso   1.00
C204   C     0.29712   0.53860   0.68857   0.00000  Uiso   1.00
C205   C     0.28110   0.55008   0.73339   0.00000  Uiso   1.00
Ni206  Ni    0.23021   0.46671   0.11097   0.00000  Uiso   1.00
C207   C     0.19131   0.52376   0.96692   0.00000  Uiso   1.00
C208   C     0.16953   0.54011   0.00789   0.00000  Uiso   1.00
C209   C     0.18212   0.52261   0.05102   0.00000  Uiso   1.00
C210   C     0.23655   0.47312   0.01426   0.00000  Uiso   1.00
C211   C     0.22530   0.48997   0.97027   0.00000  Uiso   1.00
H212   H     0.24546   0.46455   0.28321   0.00000  Uiso   1.00
H213   H     0.31752   0.36025   0.20479   0.00000  Uiso   1.00
H214   H     0.28391   0.39073   0.13315   0.00000  Uiso   1.00
H215   H     0.21272   0.49318   0.20937   0.00000  Uiso   1.00
N216   N     0.24703   0.44317   0.16779   0.00000  Uiso   1.00
N217   N     0.21466   0.48936   0.05340   0.00000  Uiso   1.00
H218   H     0.14373   0.56688   0.00672   0.00000  Uiso   1.00
H219   H     0.16623   0.53567   0.08278   0.00000  Uiso   1.00
H220   H     0.26295   0.44721   0.01721   0.00000  Uiso   1.00
H221   H     0.24288   0.47695   0.93929   0.00000  Uiso   1.00
C222   C     0.28348   0.40981   0.24940   0.00000  Uiso   1.00
C223   C     0.29338   0.38849   0.20692   0.00000  Uiso   1.00
C224   C     0.27469   0.40579   0.16638   0.00000  Uiso   1.00
C225   C     0.23490   0.46343   0.20898   0.00000  Uiso   1.00
C226   C     0.25309   0.44711   0.25076   0.00000  Uiso   1.00
Ni227  Ni    0.10129   0.21725   0.49569   0.00000  Uiso   1.00
C228   C     0.23774   0.26821   0.43116   0.00000  Uiso   1.00
C229   C     0.20441   0.29709   0.45178   0.00000  Uiso   1.00
C230   C     0.16432   0.27955   0.47090   0.00000  Uiso   1.00
C231   C     0.18851   0.20492   0.45093   0.00000  Uiso   1.00
C232   C     0.22961   0.22141   0.43068   0.00000  Uiso   1.00
H233   H     0.94741   0.25971   0.55252   0.00000  Uiso   1.00
H234   H     0.98182   0.11709   0.56320   0.00000  Uiso   1.00
H235   H     0.05845   0.13331   0.52847   0.00000  Uiso   1.00
H236   H     0.02480   0.27289   0.51873   0.00000  Uiso   1.00
N237   N     0.04465   0.20369   0.52136   0.00000  Uiso   1.00
N238   N     0.15698   0.23437   0.47030   0.00000  Uiso   1.00
H239   H     0.20877   0.33344   0.45235   0.00000  Uiso   1.00
H240   H     0.13841   0.30215   0.48594   0.00000  Uiso   1.00
H241   H     0.18187   0.16893   0.45086   0.00000  Uiso   1.00
H242   H     0.25466   0.19816   0.41534   0.00000  Uiso   1.00
C243   C     0.95806   0.18709   0.55943   0.00000  Uiso   1.00
C244   C     0.99021   0.15151   0.55321   0.00000  Uiso   1.00
C245   C     0.03361   0.16055   0.53369   0.00000  Uiso   1.00
C246   C     0.01453   0.23882   0.52805   0.00000  Uiso   1.00
C247   C     0.97073   0.23125   0.54693   0.00000  Uiso   1.00
Ni248  Ni    0.03013   0.84996   0.74469   0.00000  Uiso   1.00
C249   C     0.97869   0.99451   0.71050   0.00000  Uiso   1.00
C250   C     0.02482   0.98311   0.70128   0.00000  Uiso   1.00
C251   C     0.04071   0.93928   0.71234   0.00000  Uiso   1.00
C252   C     0.96668   0.91882   0.74040   0.00000  Uiso   1.00
C253   C     0.94968   0.96208   0.73094   0.00000  Uiso   1.00
H254   H     0.13927   0.73244   0.79630   0.00000  Uiso   1.00
H255   H     0.99572   0.70024   0.80682   0.00000  Uiso   1.00
H256   H     0.97789   0.77198   0.76677   0.00000  Uiso   1.00
H257   H     0.11759   0.80518   0.75785   0.00000  Uiso   1.00
N258   N     0.04703   0.79174   0.76096   0.00000  Uiso   1.00
N259   N     0.01118   0.90805   0.73044   0.00000  Uiso   1.00
H260   H     0.04810   0.00772   0.68607   0.00000  Uiso   1.00
H261   H     0.07612   0.92974   0.70535   0.00000  Uiso   1.00
H262   H     0.94401   0.89313   0.75437   0.00000  Uiso   1.00
H263   H     0.91372   0.96963   0.73796   0.00000  Uiso   1.00
C264   C     0.06887   0.70967   0.80371   0.00000  Uiso   1.00
C265   C     0.02346   0.72121   0.79405   0.00000  Uiso   1.00
C266   C     0.01321   0.76230   0.77218   0.00000  Uiso   1.00
C267   C     0.09175   0.78065   0.76724   0.00000  Uiso   1.00
C268   C     0.10377   0.73914   0.78846   0.00000  Uiso   1.00
Ni269  Ni    0.97679   0.36882   0.79388   0.00000  Uiso   1.00
C270   C     0.03961   0.50112   0.84275   0.00000  Uiso   1.00
C271   C     0.99230   0.50077   0.83597   0.00000  Uiso   1.00
C272   C     0.97245   0.46018   0.82199   0.00000  Uiso   1.00
C273   C     0.04446   0.42188   0.82349   0.00000  Uiso   1.00
C274   C     0.06534   0.46095   0.83702   0.00000  Uiso   1.00
H275   H     0.85956   0.26666   0.73983   0.00000  Uiso   1.00
H276   H     0.99939   0.21775   0.72543   0.00000  Uiso   1.00
H277   H     0.02391   0.28807   0.76302   0.00000  Uiso   1.00
H278   H     0.88702   0.33568   0.77644   0.00000  Uiso   1.00
N279   N     0.95657   0.31485   0.77150   0.00000  Uiso   1.00
N280   N     0.99907   0.42212   0.81560   0.00000  Uiso   1.00
H281   H     0.97163   0.53145   0.83983   0.00000  Uiso   1.00
H282   H     0.93625   0.45927   0.81569   0.00000  Uiso   1.00
H283   H     0.06478   0.39123   0.81860   0.00000  Uiso   1.00
H284   H     0.10187   0.46008   0.84224   0.00000  Uiso   1.00
C285   C     0.92765   0.23691   0.72912   0.00000  Uiso   1.00
C286   C     0.97408   0.24261   0.73725   0.00000  Uiso   1.00
C287   C     0.98794   0.28237   0.75841   0.00000  Uiso   1.00
C288   C     0.91117   0.30925   0.76585   0.00000  Uiso   1.00
C289   C     0.89588   0.27023   0.74483   0.00000  Uiso   1.00
Ni290  Ni    0.85069   0.73690   0.03582   0.00000  Uiso   1.00
C291   C     0.70636   0.80058   0.05598   0.00000  Uiso   1.00
C292   C     0.71644   0.75899   0.07785   0.00000  Uiso   1.00
C293   C     0.76027   0.73950   0.07147   0.00000  Uiso   1.00
C294   C     0.78294   0.80087   0.02254   0.00000  Uiso   1.00
C295   C     0.73989   0.82148   0.02795   0.00000  Uiso   1.00
H296   H     0.97405   0.61937   0.03101   0.00000  Uiso   1.00
H297   H     0.99984   0.74601   0.95831   0.00000  Uiso   1.00
H298   H     0.92529   0.77476   0.98845   0.00000  Uiso   1.00
H299   H     0.89945   0.65199   0.05950   0.00000  Uiso   1.00
N300   N     0.90921   0.71463   0.02466   0.00000  Uiso   1.00
N301   N     0.79257   0.76109   0.04475   0.00000  Uiso   1.00
H302   H     0.69131   0.74255   0.10052   0.00000  Uiso   1.00
H303   H     0.76874   0.70757   0.08820   0.00000  Uiso   1.00
H304   H     0.80910   0.81682   0.00093   0.00000  Uiso   1.00
H305   H     0.73318   0.85408   0.01150   0.00000  Uiso   1.00
C306   C     0.99299   0.68017   0.99255   0.00000  Uiso   1.00
C307   C     0.97934   0.72479   0.98161   0.00000  Uiso   1.00
C308   C     0.93722   0.74132   0.99835   0.00000  Uiso   1.00
C309   C     0.92258   0.67229   0.03837   0.00000  Uiso   1.00
C310   C     0.96496   0.65417   0.02263   0.00000  Uiso   1.00
Ni311  Ni    0.54121   0.64520   0.25082   0.00000  Uiso   1.00
C312   C     0.58268   0.79081   0.21180   0.00000  Uiso   1.00
C313   C     0.61669   0.75902   0.22351   0.00000  Uiso   1.00
C314   C     0.60417   0.71519   0.23724   0.00000  Uiso   1.00
C315   C     0.52562   0.73516   0.23166   0.00000  Uiso   1.00
C316   C     0.53660   0.77896   0.21707   0.00000  Uiso   1.00
H317   H     0.55131   0.47818   0.27958   0.00000  Uiso   1.00
H318   H     0.41746   0.54218   0.28566   0.00000  Uiso   1.00
H319   H     0.45266   0.61475   0.26452   0.00000  Uiso   1.00
H320   H     0.58436   0.55343   0.25929   0.00000  Uiso   1.00
N321   N     0.51986   0.58751   0.26142   0.00000  Uiso   1.00
N322   N     0.55923   0.70397   0.23993   0.00000  Uiso   1.00
H323   H     0.65251   0.76686   0.21814   0.00000  Uiso   1.00
H324   H     0.63029   0.68967   0.24347   0.00000  Uiso   1.00
H325   H     0.49021   0.72511   0.23415   0.00000  Uiso   1.00
H326   H     0.50949   0.80246   0.20758   0.00000  Uiso   1.00
C327   C     0.48165   0.50430   0.28372   0.00000  Uiso   1.00
C328   C     0.45409   0.54331   0.27910   0.00000  Uiso   1.00
C329   C     0.47387   0.58449   0.26745   0.00000  Uiso   1.00
C330   C     0.54776   0.55009   0.26430   0.00000  Uiso   1.00
C331   C     0.52904   0.50748   0.27536   0.00000  Uiso   1.00
loop_
_geom_bond_atom_site_label_1
_geom_bond_atom_site_label_2
_geom_bond_distance
_geom_bond_site_symmetry_2
_ccdc_geom_bond_type
O0     C6      1.313   .     A
O0     Yb3     2.209   .     S
Yb1    Yb3     2.848   .     S
Yb1    O4      2.128   .     S
Yb1    O9      2.188   .     S
Yb1    O10     2.137   .     S
Yb1    O11     2.116   .     S
Yb1    O16     2.151   .     S
Yb1    O17     2.099   .     S
Yb1    O19     2.117   .     S
C2     O16     1.285   .     A
C2     O17     1.272   .     A
C2     C201    1.452   .     S
Yb3    O7      2.127   .     S
Yb3    O10     2.093   .     S
Yb3    O12     2.174   .     S
Yb3    O13     2.191   .     S
Yb3    O18     2.152   .     S
Yb3    O19     2.188   .     S
O4     C6      1.299   .     A
C5     O18     1.226   .     D
C5     O19     1.394   .     S
C5     C264    1.477   .     S
C6     C96     1.486   .     S
O7     C8      1.278   .     A
C8     O12     1.281   .     A
C8     C306    1.472   1_455 S
O9     C14     1.231   .     D
O10    C14     1.381   .     S
O11    C15     1.299   .     A
O13    C15     1.309   .     A
C14    C207    1.474   .     S
C15    C270    1.466   .     S
O20    C26     1.310   .     A
O20    Yb23    2.175   .     S
Yb21   Yb23    2.850   .     S
Yb21   O24     2.151   .     S
Yb21   O29     2.169   .     S
Yb21   O30     2.149   .     S
Yb21   O31     2.135   .     S
Yb21   O36     2.171   .     S
Yb21   O37     2.108   .     S
Yb21   O39     2.117   .     S
C22    O36     1.286   .     A
C22    O37     1.274   .     A
C22    C81     1.472   1_554 S
Yb23   O27     2.140   .     S
Yb23   O30     2.115   .     S
Yb23   O32     2.169   .     S
Yb23   O33     2.178   .     S
Yb23   O38     2.148   .     S
Yb23   O39     2.171   .     S
O24    C26     1.307   .     A
C25    O38     1.226   .     D
C25    O39     1.394   .     S
C25    C117    1.463   .     S
C26    C159    1.464   .     S
O27    C28     1.280   .     A
C28    O32     1.282   .     A
C28    C180    1.481   .     S
O29    C34     1.231   .     D
O30    C34     1.388   .     S
O31    C35     1.295   .     A
O33    C35     1.304   .     A
C34    C291    1.462   .     S
C35    C312    1.466   .     S
O40    C46     1.310   .     A
O40    Yb43    2.187   .     S
Yb41   Yb43    2.924   .     S
Yb41   O44     2.133   .     S
Yb41   O49     2.187   .     S
Yb41   O50     2.089   .     S
Yb41   O51     2.143   .     S
Yb41   O56     2.148   .     S
Yb41   O57     2.109   .     S
Yb41   O59     2.145   .     S
C42    O56     1.283   .     A
C42    O57     1.275   .     A
C42    C123    1.471   .     S
Yb43   O47     2.108   .     S
Yb43   O50     2.098   .     S
Yb43   O52     2.142   .     S
Yb43   O53     2.269   .     S
Yb43   O58     2.171   .     S
Yb43   O59     2.143   .     S
O44    C46     1.298   .     A
C45    O58     1.225   .     D
C45    O59     1.383   .     S
C45    C144    1.472   .     S
C46    C285    1.474   .     S
O47    C48     1.275   .     A
C48    O52     1.282   .     A
C48    C249    1.468   1_545 S
O49    C54     1.226   .     D
O50    C54     1.376   .     S
O51    C55     1.303   .     A
O53    C55     1.326   .     A
C54    C243    1.476   .     S
C55    C165    1.480   .     S
O60    C66     1.310   .     A
O60    Yb63    2.188   .     S
Yb61   Yb63    2.898   .     S
Yb61   O64     2.132   .     S
Yb61   O69     2.181   .     S
Yb61   O70     2.163   .     S
Yb61   O71     2.145   .     S
Yb61   O76     2.178   .     S
Yb61   O77     2.107   .     S
Yb61   O79     2.082   .     S
C62    O76     1.283   .     A
C62    O77     1.267   .     A
C62    C327    1.473   .     S
Yb63   O67     2.126   .     S
Yb63   O70     2.132   .     S
Yb63   O72     2.179   .     S
Yb63   O73     2.186   .     S
Yb63   O78     2.176   .     S
Yb63   O79     2.112   .     S
O64    C66     1.301   .     A
C65    O78     1.224   .     D
C65    O79     1.384   .     S
C65    C186    1.459   .     S
C66    C138    1.464   .     S
O67    C68     1.277   .     A
C68    O72     1.283   .     A
C68    C228    1.482   .     S
O69    C74     1.227   .     D
O70    C74     1.382   .     S
O71    C75     1.304   .     A
O73    C75     1.310   .     A
C74    C102    1.482   .     S
C75    C222    1.464   .     S
Ni80   N90     1.845   .     S
Ni80   N91     1.843   .     S
C81    C85     1.405   .     A
C81    C82     1.401   1_556 A
C81    C22     1.472   1_556 S
C82    C83     1.389   .     A
C82    H92     1.084   .     S
C82    C81     1.401   1_554 A
C83    H93     1.082   .     S
C83    N91     1.355   1_554 A
C84    C85     1.408   .     A
C84    N91     1.365   .     A
C84    H94     1.084   .     S
C85    H95     1.084   .     S
H86    C100    1.083   .     S
H87    C97     1.084   .     S
H88    C98     1.083   .     S
H89    C99     1.084   .     S
N90    C98     1.355   .     A
N90    C99     1.363   .     A
N91    C83     1.355   1_556 A
C96    C97     1.409   .     A
C96    C100    1.405   .     A
C97    C98     1.394   .     A
C99    C100    1.406   .     A
Ni101  N111    1.843   .     S
Ni101  N112    1.843   .     S
C102   C103    1.406   .     A
C102   C106    1.404   .     A
C103   C104    1.398   .     A
C103   H113    1.082   .     S
C104   N112    1.358   .     A
C104   H114    1.082   .     S
C105   C106    1.400   .     A
C105   N112    1.360   .     A
C105   H115    1.082   .     S
C106   H116    1.082   .     S
H107   C121    1.084   .     S
H108   C118    1.085   .     S
H109   C119    1.083   .     S
H110   C120    1.083   .     S
N111   C119    1.358   .     A
N111   C120    1.364   .     A
C117   C121    1.400   .     A
C117   C118    1.401   1_565 A
C118   C119    1.392   .     A
C118   C117    1.401   1_545 A
C120   C121    1.404   1_545 A
C121   C120    1.404   1_565 A
Ni122  N132    1.834   .     S
Ni122  N133    1.834   .     S
C123   C124    1.403   .     A
C123   C127    1.404   .     A
C124   C125    1.398   .     A
C124   H134    1.084   .     S
C125   N133    1.360   .     A
C125   H135    1.083   .     S
C126   C127    1.393   .     A
C126   N133    1.356   .     A
C126   H136    1.081   .     S
C127   H137    1.083   .     S
H128   C142    1.085   .     S
H129   C139    1.083   .     S
H130   C140    1.082   .     S
H131   C141    1.082   .     S
N132   C140    1.363   .     A
N132   C141    1.355   .     A
C138   C139    1.401   .     A
C138   C142    1.402   .     A
C139   C140    1.404   .     A
C141   C142    1.386   .     A
Ni143  N154    1.839   .     S
Ni143  N153    1.838   1_545 S
C144   C145    1.404   .     A
C144   C148    1.405   .     A
C145   C146    1.400   .     A
C145   H155    1.083   .     S
C146   N154    1.361   .     A
C146   H156    1.082   .     S
C147   C148    1.394   .     A
C147   N154    1.358   .     A
C147   H157    1.083   .     S
C148   H158    1.083   .     S
H149   C163    1.083   1_544 S
H150   C160    1.085   .     S
H151   C161    1.083   .     S
H152   C162    1.083   .     S
N153   C161    1.361   .     A
N153   Ni143   1.838   1_565 S
N153   C162    1.360   1_565 A
C159   C160    1.402   .     A
C159   C163    1.400   1_554 A
C160   C161    1.397   1_554 A
C161   C160    1.397   1_556 A
C162   N153    1.360   1_545 A
C162   C163    1.396   1_545 A
C163   H149    1.083   1_566 S
C163   C159    1.400   1_556 A
C163   C162    1.396   1_565 A
Ni164  N175    1.842   .     S
Ni164  N174    1.842   1_545 S
C165   C166    1.407   .     A
C165   C169    1.404   .     A
C166   C167    1.406   .     A
C166   H176    1.083   .     S
C167   N175    1.362   .     A
C167   H177    1.082   1_545 S
C168   C169    1.390   .     A
C168   N175    1.356   .     A
C168   H178    1.082   .     S
C169   H179    1.083   .     S
H170   C184    1.082   .     S
H171   C181    1.083   1_545 S
H172   C182    1.083   .     S
H173   C183    1.081   .     S
N174   C183    1.361   .     A
N174   Ni164   1.842   1_565 S
N174   C182    1.357   1_565 A
H177   C167    1.082   1_565 S
C180   C181    1.405   .     A
C180   C184    1.405   .     A
C181   H171    1.083   1_565 S
C181   C182    1.392   1_565 A
C182   N174    1.357   1_545 A
C182   C181    1.392   1_545 A
C183   C184    1.405   .     A
Ni185  N195    1.838   .     S
Ni185  N196    1.835   .     S
C186   C187    1.399   .     A
C186   C190    1.400   .     A
C187   C188    1.399   .     A
C187   H197    1.082   .     S
C188   N196    1.362   .     A
C188   H198    1.081   .     S
C189   C190    1.390   .     A
C189   N196    1.358   .     A
C189   H199    1.079   .     S
C190   H200    1.085   .     S
H191   C205    1.084   .     S
H192   C202    1.085   .     S
H193   C203    1.081   .     S
H194   C204    1.082   .     S
N195   C203    1.358   .     A
N195   C204    1.361   .     A
C201   C202    1.397   .     A
C201   C205    1.401   .     A
C202   C203    1.390   .     A
C204   C205    1.399   .     A
Ni206  N216    1.845   .     S
Ni206  N217    1.845   .     S
C207   C211    1.400   .     A
C207   C208    1.406   1_556 A
C208   C209    1.395   .     A
C208   H218    1.084   .     S
C208   C207    1.406   1_554 A
C209   N217    1.357   .     A
C209   H219    1.082   .     S
C210   N217    1.363   .     A
C210   H220    1.082   .     S
C210   C211    1.400   1_554 A
C211   H221    1.084   .     S
C211   C210    1.400   1_556 A
H212   C226    1.085   .     S
H213   C223    1.084   .     S
H214   C224    1.081   .     S
H215   C225    1.082   .     S
N216   C224    1.356   .     A
N216   C225    1.366   .     A
C222   C223    1.399   .     A
C222   C226    1.402   .     A
C223   C224    1.391   .     A
C225   C226    1.406   .     A
Ni227  N237    1.841   .     S
Ni227  N238    1.840   .     S
C228   C229    1.404   .     A
C228   C232    1.405   .     A
C229   C230    1.385   .     A
C229   H239    1.082   .     S
C230   N238    1.354   .     A
C230   H240    1.083   .     S
C231   C232    1.411   .     A
C231   N238    1.365   .     A
C231   H241    1.083   .     S
C232   H242    1.082   .     S
H233   C247    1.082   .     S
H234   C244    1.083   .     S
H235   C245    1.082   .     S
H236   C246    1.083   .     S
N237   C245    1.359   .     A
N237   C246    1.360   .     A
C243   C244    1.406   .     A
C243   C247    1.401   .     A
C244   C245    1.401   1_655 A
C245   C244    1.401   1_455 A
C246   C247    1.396   1_455 A
C247   C246    1.396   1_655 A
Ni248  N258    1.839   .     S
Ni248  N259    1.838   .     S
C249   C253    1.402   .     A
C249   C250    1.402   1_655 A
C249   C48     1.468   1_565 S
C250   C251    1.403   .     A
C250   C249    1.402   1_455 A
C250   H260    1.084   1_565 S
C251   N259    1.362   .     A
C251   H261    1.082   .     S
C252   C253    1.389   .     A
C252   H262    1.082   .     S
C252   N259    1.357   1_655 A
C253   H263    1.084   .     S
H254   C268    1.084   .     S
H255   C265    1.082   1_655 S
H256   C266    1.083   1_655 S
H257   C267    1.082   .     S
N258   C266    1.357   .     A
N258   C267    1.360   .     A
N259   C252    1.357   1_455 A
H260   C250    1.084   1_545 S
C264   C265    1.401   .     A
C264   C268    1.409   .     A
C265   C266    1.392   .     A
C265   H255    1.082   1_455 S
C266   H256    1.083   1_455 S
C267   C268    1.406   .     A
Ni269  N279    1.837   .     S
Ni269  N280    1.835   .     S
C270   C274    1.401   .     A
C270   C271    1.404   1_455 A
C271   C272    1.408   .     A
C271   H281    1.084   .     S
C271   C270    1.404   1_655 A
C272   N280    1.366   .     A
C272   H282    1.081   .     S
C273   C274    1.379   .     A
C273   H283    1.081   .     S
C273   N280    1.354   1_455 A
C274   H284    1.083   .     S
H275   C289    1.083   .     S
H276   C286    1.082   .     S
H277   C287    1.081   1_455 S
H278   C288    1.082   .     S
N279   C287    1.362   .     A
N279   C288    1.356   .     A
N280   C273    1.354   1_655 A
C285   C286    1.398   .     A
C285   C289    1.409   .     A
C286   C287    1.399   .     A
C287   H277    1.081   1_655 S
C288   C289    1.392   .     A
Ni290  N300    1.842   .     S
Ni290  N301    1.844   .     S
C291   C292    1.404   .     A
C291   C295    1.397   .     A
C292   C293    1.403   .     A
C292   H302    1.085   .     S
C293   N301    1.361   .     A
C293   H303    1.082   .     S
C294   C295    1.394   .     A
C294   N301    1.359   .     A
C294   H304    1.081   .     S
C295   H305    1.085   .     S
H296   C310    1.083   .     S
H297   C307    1.086   .     S
H298   C308    1.079   .     S
H299   C309    1.080   .     S
N300   C309    1.361   .     A
N300   C308    1.354   1_554 A
C306   C307    1.404   .     A
C306   C310    1.404   1_556 A
C306   C8      1.472   1_655 S
C307   C308    1.390   .     A
C308   N300    1.354   1_556 A
C309   C310    1.404   .     A
C310   C306    1.404   1_554 A
Ni311  N321    1.842   .     S
Ni311  N322    1.842   .     S
C312   C313    1.401   .     A
C312   C316    1.402   .     A
C313   C314    1.400   .     A
C313   H323    1.083   .     S
C314   N322    1.361   .     A
C314   H324    1.081   .     S
C315   C316    1.394   .     A
C315   N322    1.359   .     A
C315   H325    1.082   .     S
C316   H326    1.084   .     S
H317   C331    1.082   .     S
H318   C328    1.083   .     S
H319   C329    1.082   .     S
H320   C330    1.082   .     S
N321   C329    1.355   .     A
N321   C330    1.364   .     A
C327   C328    1.401   .     A
C327   C331    1.404   .     A
C328   C329    1.388   .     A
C330   C331    1.409   .     A
