data_lcy+N106+E35
_audit_creation_date              2025-01-21
_audit_creation_method            'Materials Studio'
_symmetry_space_group_name_H-M    'P1'
_symmetry_Int_Tables_number       1
_symmetry_cell_setting            triclinic
loop_
_symmetry_equiv_pos_as_xyz
  x,y,z
_cell_length_a                    25.4532
_cell_length_b                    25.9045
_cell_length_c                    26.3797
_cell_angle_alpha                 99.7589
_cell_angle_beta                  98.8765
_cell_angle_gamma                 92.1019
loop_
_atom_site_label
_atom_site_type_symbol
_atom_site_fract_x
_atom_site_fract_y
_atom_site_fract_z
_atom_site_U_iso_or_equiv
_atom_site_adp_type
_atom_site_occupancy
Y0     Y     0.11069   0.64625   0.79160   0.00000  Uiso   1.00
Y1     Y     0.15217   0.58201   0.87912   0.00000  Uiso   1.00
O2     O     0.14813   0.58122   0.74626   0.00000  Uiso   1.00
O3     O     0.09985   0.55992   0.79998   0.00000  Uiso   1.00
C4     C     0.20406   0.54578   0.96204   0.00000  Uiso   1.00
O5     O     0.07024   0.54146   0.86701   0.00000  Uiso   1.00
O6     O     0.11875   0.71570   0.75224   0.00000  Uiso   1.00
O7     O     0.04554   0.67179   0.73329   0.00000  Uiso   1.00
O8     O     0.20338   0.56052   0.81437   0.00000  Uiso   1.00
O9     O     0.16282   0.66676   0.87098   0.00000  Uiso   1.00
O10    O     0.19699   0.67665   0.80427   0.00000  Uiso   1.00
O11    O     0.05167   0.66099   0.84710   0.00000  Uiso   1.00
C12    C     0.18946   0.55934   0.76489   0.00000  Uiso   1.00
O13    O     0.09603   0.63526   0.91784   0.00000  Uiso   1.00
C14    C     0.05927   0.53807   0.82017   0.00000  Uiso   1.00
O15    O     0.17044   0.51802   0.92691   0.00000  Uiso   1.00
O16    O     0.21341   0.59087   0.95217   0.00000  Uiso   1.00
C17    C     0.07221   0.71187   0.72737   0.00000  Uiso   1.00
C18    C     0.05566   0.65515   0.89470   0.00000  Uiso   1.00
C19    C     0.20731   0.67966   0.85089   0.00000  Uiso   1.00
Y20    Y     0.66809   0.82050   0.10237   0.00000  Uiso   1.00
Y21    Y     0.59503   0.90784   0.14842   0.00000  Uiso   1.00
O22    O     0.61462   0.77390   0.13961   0.00000  Uiso   1.00
O23    O     0.57762   0.82962   0.09361   0.00000  Uiso   1.00
C24    C     0.55841   0.99387   0.20155   0.00000  Uiso   1.00
O25    O     0.54358   0.89756   0.06923   0.00000  Uiso   1.00
O26    O     0.75150   0.79969   0.09618   0.00000  Uiso   1.00
O27    O     0.69056   0.75115   0.04562   0.00000  Uiso   1.00
O28    O     0.58799   0.84100   0.19490   0.00000  Uiso   1.00
O29    O     0.68265   0.89484   0.16334   0.00000  Uiso   1.00
O30    O     0.70834   0.82303   0.18539   0.00000  Uiso   1.00
O31    O     0.66637   0.87811   0.04818   0.00000  Uiso   1.00
C32    C     0.59384   0.79156   0.18006   0.00000  Uiso   1.00
O33    O     0.63756   0.94839   0.09585   0.00000  Uiso   1.00
C34    C     0.54570   0.85066   0.05605   0.00000  Uiso   1.00
O35    O     0.52826   0.95487   0.17690   0.00000  Uiso   1.00
O36    O     0.60687   0.98611   0.20188   0.00000  Uiso   1.00
C37    C     0.74031   0.76052   0.06028   0.00000  Uiso   1.00
C38    C     0.65685   0.92646   0.05625   0.00000  Uiso   1.00
C39    C     0.70277   0.86834   0.20273   0.00000  Uiso   1.00
Y40    Y     0.80537   0.10067   0.68169   0.00000  Uiso   1.00
Y41    Y     0.87657   0.13650   0.60399   0.00000  Uiso   1.00
O42    O     0.74824   0.14888   0.64096   0.00000  Uiso   1.00
O43    O     0.79797   0.08834   0.59198   0.00000  Uiso   1.00
C44    C     0.94761   0.18635   0.55986   0.00000  Uiso   1.00
O45    O     0.86157   0.05747   0.55296   0.00000  Uiso   1.00
O46    O     0.80681   0.09171   0.76414   0.00000  Uiso   1.00
O47    O     0.73892   0.05850   0.71113   0.00000  Uiso   1.00
O48    O     0.80650   0.19000   0.60185   0.00000  Uiso   1.00
O49    O     0.88336   0.14901   0.69088   0.00000  Uiso   1.00
O50    O     0.81909   0.18550   0.72224   0.00000  Uiso   1.00
O51    O     0.85909   0.03509   0.66909   0.00000  Uiso   1.00
C52    C     0.76053   0.18475   0.61604   0.00000  Uiso   1.00
O53    O     0.92359   0.07251   0.63555   0.00000  Uiso   1.00
C54    C     0.81644   0.04773   0.55929   0.00000  Uiso   1.00
O55    O     0.90460   0.16317   0.53467   0.00000  Uiso   1.00
O56    O     0.95287   0.18489   0.60781   0.00000  Uiso   1.00
C57    C     0.76191   0.06766   0.75820   0.00000  Uiso   1.00
C58    C     0.90435   0.03426   0.65382   0.00000  Uiso   1.00
C59    C     0.86358   0.19413   0.71405   0.00000  Uiso   1.00
Y60    Y     0.44775   0.44544   0.39550   0.00000  Uiso   1.00
Y61    Y     0.34315   0.37632   0.39713   0.00000  Uiso   1.00
O62    O     0.48254   0.39231   0.44790   0.00000  Uiso   1.00
O63    O     0.42390   0.35752   0.37690   0.00000  Uiso   1.00
C64    C     0.25609   0.33531   0.42679   0.00000  Uiso   1.00
O65    O     0.35515   0.32490   0.32196   0.00000  Uiso   1.00
O66    O     0.49807   0.52093   0.40931   0.00000  Uiso   1.00
O67    O     0.51277   0.46099   0.34975   0.00000  Uiso   1.00
O68    O     0.40498   0.35983   0.46567   0.00000  Uiso   1.00
O69    O     0.36740   0.46259   0.41808   0.00000  Uiso   1.00
O70    O     0.43681   0.48514   0.47584   0.00000  Uiso   1.00
O71    O     0.39410   0.44965   0.32074   0.00000  Uiso   1.00
C72    C     0.45643   0.36626   0.47415   0.00000  Uiso   1.00
O73    O     0.31334   0.42285   0.33372   0.00000  Uiso   1.00
C74    C     0.40336   0.32694   0.32960   0.00000  Uiso   1.00
O75    O     0.27532   0.31487   0.38743   0.00000  Uiso   1.00
O76    O     0.28203   0.37683   0.45087   0.00000  Uiso   1.00
C77    C     0.52247   0.50842   0.37150   0.00000  Uiso   1.00
C78    C     0.34369   0.44274   0.30634   0.00000  Uiso   1.00
C79    C     0.38864   0.48129   0.46949   0.00000  Uiso   1.00
C80    C     0.41277   0.76512   0.95739   0.00000  Uiso   1.00
C81    C     0.42210   0.81828   0.95543   0.00000  Uiso   1.00
C82    C     0.46860   0.84549  -0.01611   0.00000  Uiso   1.00
C83    C     0.50572   0.81973   0.01433   0.00000  Uiso   1.00
C84    C     0.49633   0.76559   0.01242   0.00000  Uiso   1.00
N85    N     0.45025   0.74003   0.98506   0.00000  Uiso   1.00
C86    C     0.36136   0.73778   0.93247   0.00000  Uiso   1.00
N87    N     0.35355   0.71707   0.88077   0.00000  Uiso   1.00
C88    C     0.30512   0.69620   0.85481   0.00000  Uiso   1.00
C89    C     0.26077   0.69674   0.88072   0.00000  Uiso   1.00
C90    C     0.26827   0.71657   0.93431   0.00000  Uiso   1.00
C91    C     0.31866   0.73733   0.96030   0.00000  Uiso   1.00
H92    H     0.47395   0.88733  -0.01528   0.00000  Uiso   1.00
H93    H     0.52396   0.74448   0.03549   0.00000  Uiso   1.00
H94    H     0.30093   0.68025   0.81361   0.00000  Uiso   1.00
H95    H     0.23494   0.71796   0.95546   0.00000  Uiso   1.00
H96    H     0.39253   0.83901   0.93396   0.00000  Uiso   1.00
H97    H     0.32398   0.75443   1.00130   0.00000  Uiso   1.00
C98    C     0.48301   0.19694   0.26645   0.00000  Uiso   1.00
C99    C     0.51208   0.23700   0.30404   0.00000  Uiso   1.00
C100   C     0.48747   0.28256   0.32115   0.00000  Uiso   1.00
C101   C     0.43416   0.28825   0.30093   0.00000  Uiso   1.00
C102   C     0.40776   0.24904   0.26082   0.00000  Uiso   1.00
N103   N     0.43216   0.20457   0.24552   0.00000  Uiso   1.00
C104   C     0.50431   0.14498   0.25222   0.00000  Uiso   1.00
N105   N     0.46940   0.10216   0.23528   0.00000  Uiso   1.00
C106   C     0.48566   0.05307   0.22131   0.00000  Uiso   1.00
C107   C     0.54004   0.04505   0.22352   0.00000  Uiso   1.00
C108   C     0.57685   0.08851   0.24144   0.00000  Uiso   1.00
C109   C     0.55922   0.13846   0.25573   0.00000  Uiso   1.00
H110   H     0.50904   0.31165   0.35261   0.00000  Uiso   1.00
H111   H     0.36660   0.25211   0.24420   0.00000  Uiso   1.00
H112   H     0.45610   1.02064   0.20748   0.00000  Uiso   1.00
H113   H     0.61924   0.08424   0.24263   0.00000  Uiso   1.00
H114   H     0.55215   0.23209   0.32251   0.00000  Uiso   1.00
H115   H     0.58830   0.17155   0.26767   0.00000  Uiso   1.00
C116   C     0.62752   0.27045   0.57289   0.00000  Uiso   1.00
C117   C     0.64133   0.26505   0.62509   0.00000  Uiso   1.00
C118   C     0.68671   0.23906   0.63975   0.00000  Uiso   1.00
C119   C     0.71878   0.22003   0.60284   0.00000  Uiso   1.00
C120   C     0.70531   0.22894   0.55175   0.00000  Uiso   1.00
N121   N     0.65983   0.25265   0.53794   0.00000  Uiso   1.00
C122   C     0.57705   0.29196   0.55406   0.00000  Uiso   1.00
N123   N     0.54884   0.26827   0.50739   0.00000  Uiso   1.00
C124   C     0.50467   0.28846   0.48476   0.00000  Uiso   1.00
C125   C     0.48818   0.33633   0.50820   0.00000  Uiso   1.00
C126   C     0.51545   0.36087   0.55707   0.00000  Uiso   1.00
C127   C     0.55960   0.33812   0.58077   0.00000  Uiso   1.00
H128   H     0.69602   0.23243   0.67956   0.00000  Uiso   1.00
H129   H     0.72902   0.21437   0.52228   0.00000  Uiso   1.00
H130   H     0.48530   0.26958   0.44624   0.00000  Uiso   1.00
H131   H     0.50467   0.39893   0.57512   0.00000  Uiso   1.00
H132   H     0.61600   0.27836   0.65348   0.00000  Uiso   1.00
H133   H     0.58193   0.35813   0.61761   0.00000  Uiso   1.00
C134   C     0.70813   1.02294   0.89030   0.00000  Uiso   1.00
C135   C     0.75072   0.06040   0.89673   0.00000  Uiso   1.00
C136   C     0.76701   0.07505   0.85323   0.00000  Uiso   1.00
C137   C     0.74057   0.05335   0.80308   0.00000  Uiso   1.00
C138   C     0.69611   0.01811   0.79807   0.00000  Uiso   1.00
N139   N     0.68137   1.00354   0.84145   0.00000  Uiso   1.00
C140   C     0.69477   1.00199   0.93556   0.00000  Uiso   1.00
N141   N     0.64330   0.98699   0.93721   0.00000  Uiso   1.00
C142   C     0.62972   0.96556   0.97742   0.00000  Uiso   1.00
C143   C     0.66930   0.95735   0.01792   0.00000  Uiso   1.00
C144   C     0.72235   0.97201   0.01687   0.00000  Uiso   1.00
C145   C     0.73524   0.99481   0.97600   0.00000  Uiso   1.00
H146   H     0.80097   0.10306   0.85896   0.00000  Uiso   1.00
H147   H     0.67430   0.00095   0.76003   0.00000  Uiso   1.00
H148   H     0.58847   0.95320   0.97684   0.00000  Uiso   1.00
H149   H     0.75384   0.96439   0.04681   0.00000  Uiso   1.00
H150   H     0.77186   0.07770   0.93503   0.00000  Uiso   1.00
H151   H     0.77675   1.00462   0.97502   0.00000  Uiso   1.00
C152   C     0.74813   0.94628   0.42410   0.00000  Uiso   1.00
C153   C     0.78665   0.92712   0.45937   0.00000  Uiso   1.00
C154   C     0.80490   0.95765   0.50829   0.00000  Uiso   1.00
C155   C     0.78322   0.00579   0.52288   0.00000  Uiso   1.00
C156   C     0.73962   0.01968   0.48985   0.00000  Uiso   1.00
N157   N     0.72443  -0.00916   0.44129   0.00000  Uiso   1.00
C158   C     0.73647   0.92332   0.36755   0.00000  Uiso   1.00
N159   N     0.69511   0.94082   0.33711   0.00000  Uiso   1.00
C160   C     0.68432   0.92503   0.28445   0.00000  Uiso   1.00
C161   C     0.71632   0.88981   0.25911   0.00000  Uiso   1.00
C162   C     0.75870   0.87060   0.28954   0.00000  Uiso   1.00
C163   C     0.76945   0.88766   0.34344   0.00000  Uiso   1.00
H164   H     0.83880   0.94583   0.53297   0.00000  Uiso   1.00
H165   H     0.72213   0.05677   0.49989   0.00000  Uiso   1.00
H166   H     0.64971   0.93837   0.26298   0.00000  Uiso   1.00
H167   H     0.78381   0.84251   0.27152   0.00000  Uiso   1.00
H168   H     0.80500   0.89074   0.44885   0.00000  Uiso   1.00
H169   H     0.80388   0.87363   0.36510   0.00000  Uiso   1.00
C170   C     0.30145   0.50077   0.59619   0.00000  Uiso   1.00
C171   C     0.27406   0.49629   0.54483   0.00000  Uiso   1.00
C172   C     0.30257   0.49193   0.50332   0.00000  Uiso   1.00
C173   C     0.35818   0.49186   0.51280   0.00000  Uiso   1.00
C174   C     0.38422   0.49798   0.56461   0.00000  Uiso   1.00
N175   N     0.35571   0.50230   0.60441   0.00000  Uiso   1.00
C176   C     0.27339   0.50709   0.64183   0.00000  Uiso   1.00
N177   N     0.30005   0.53139   0.68925   0.00000  Uiso   1.00
C178   C     0.27532   0.54372   0.73157   0.00000  Uiso   1.00
C179   C     0.22030   0.53284   0.72667   0.00000  Uiso   1.00
C180   C     0.19282   0.50483   0.67932   0.00000  Uiso   1.00
C181   C     0.21919   0.49125   0.63704   0.00000  Uiso   1.00
H182   H     0.28125   0.48801   0.46387   0.00000  Uiso   1.00
H183   H     0.42726   0.49804   0.57339   0.00000  Uiso   1.00
H184   H     0.29768   0.56560   0.76752   0.00000  Uiso   1.00
H185   H     0.15021   0.49570   0.67439   0.00000  Uiso   1.00
H186   H     0.23114   0.49687   0.53645   0.00000  Uiso   1.00
H187   H     0.19677   0.47005   0.60086   0.00000  Uiso   1.00
C188   C     0.26527   0.50226   0.10805   0.00000  Uiso   1.00
C189   C     0.28922   0.54551   0.09241   0.00000  Uiso   1.00
C190   C     0.27016   0.55867   0.04412   0.00000  Uiso   1.00
C191   C     0.22731   0.52899   1.01105   0.00000  Uiso   1.00
C192   C     0.20423   0.48614   0.02793   0.00000  Uiso   1.00
N193   N     0.22331   0.47415   0.07546   0.00000  Uiso   1.00
C194   C     0.28529   0.48691   0.15904   0.00000  Uiso   1.00
N195   N     0.25157   0.46334   0.18511   0.00000  Uiso   1.00
C196   C     0.26845   0.44926   0.23236   0.00000  Uiso   1.00
C197   C     0.32218   0.45864   0.25587   0.00000  Uiso   1.00
C198   C     0.35735   0.48205   0.22884   0.00000  Uiso   1.00
C199   C     0.33926   0.49594   0.18087   0.00000  Uiso   1.00
H200   H     0.28857   0.59242   1.03285   0.00000  Uiso   1.00
H201   H     0.17030   0.46295   0.00390   0.00000  Uiso   1.00
H202   H     0.24016   0.43045   0.25125   0.00000  Uiso   1.00
H203   H     0.39942   0.48933   0.24436   0.00000  Uiso   1.00
H204   H     0.32170   0.56979   0.11756   0.00000  Uiso   1.00
H205   H     0.36777   0.51259   0.16068   0.00000  Uiso   1.00
C206   C     0.11769   0.27237   0.47363   0.00000  Uiso   1.00
C207   C     0.13740   0.24494   0.43062   0.00000  Uiso   1.00
C208   C     0.18267   0.26563   0.41531   0.00000  Uiso   1.00
C209   C     0.20814   0.31331   0.44261   0.00000  Uiso   1.00
C210   C     0.18736   0.33950   0.48539   0.00000  Uiso   1.00
N211   N     0.14334   0.31841   0.49977   0.00000  Uiso   1.00
C212   C     0.07172   0.25097   0.49344   0.00000  Uiso   1.00
N213   N     0.06931   0.26412   0.54520   0.00000  Uiso   1.00
C214   C     0.02944   0.24494   0.56695   0.00000  Uiso   1.00
C215   C     0.98857   0.21058   0.53594   0.00000  Uiso   1.00
C216   C     0.98937   0.19742   0.48231   0.00000  Uiso   1.00
C217   C     0.03096   0.21742   0.46088   0.00000  Uiso   1.00
H218   H     0.19819   0.24390   0.38268   0.00000  Uiso   1.00
H219   H     0.20602   0.37629   0.50772   0.00000  Uiso   1.00
H220   H     0.02999   0.25622   0.60851   0.00000  Uiso   1.00
H221   H     0.95857   0.17075   0.45725   0.00000  Uiso   1.00
H222   H     0.11939   0.20725   0.41006   0.00000  Uiso   1.00
H223   H     0.03089   0.20684   0.41938   0.00000  Uiso   1.00
C224   C     0.98392   0.89215   0.66002   0.00000  Uiso   1.00
C225   C     1.01115   0.93560   0.64781   0.00000  Uiso   1.00
C226   C     0.98568   0.98242   0.64595   0.00000  Uiso   1.00
C227   C     0.93327  -0.01409   0.65598   0.00000  Uiso   1.00
C228   C     0.90726   0.94116   0.66683   0.00000  Uiso   1.00
N229   N     0.93284   0.89642   0.66865   0.00000  Uiso   1.00
C230   C     1.00901   0.84263   0.66723   0.00000  Uiso   1.00
N231   N     0.97691   0.79995   0.66927   0.00000  Uiso   1.00
C232   C     0.99633   0.75548   0.68367   0.00000  Uiso   1.00
C233   C     0.05116   0.75305   0.69904   0.00000  Uiso   1.00
C234   C     0.08528   0.79533   0.69463   0.00000  Uiso   1.00
C235   C     0.06449   0.84013   0.67874   0.00000  Uiso   1.00
H236   H     1.00700   0.01586   0.63708   0.00000  Uiso   1.00
H237   H     0.86651   0.94154   0.67409   0.00000  Uiso   1.00
H238   H     0.96873   0.72370   0.68652   0.00000  Uiso   1.00
H239   H     0.12797   0.79506   0.70633   0.00000  Uiso   1.00
H240   H     0.05147   0.93387   0.63971   0.00000  Uiso   1.00
H241   H     0.09164   0.87329   0.67904   0.00000  Uiso   1.00
C242   C     0.96018   0.40370   0.75222   0.00000  Uiso   1.00
C243   C    -0.00187   0.42092   0.72439   0.00000  Uiso   1.00
C244   C     0.02635   0.46943   0.74306   0.00000  Uiso   1.00
C245   C     0.01699   0.50015   0.78957   0.00000  Uiso   1.00
C246   C     0.97488   0.48403   0.81300   0.00000  Uiso   1.00
N247   N     0.94829   0.43652   0.79440   0.00000  Uiso   1.00
C248   C     0.93623   0.34936   0.74017   0.00000  Uiso   1.00
N249   N     0.88602   0.34009   0.74959   0.00000  Uiso   1.00
C250   C     0.86270   0.29081   0.74241   0.00000  Uiso   1.00
C251   C     0.89063   0.24710   0.72549   0.00000  Uiso   1.00
C252   C     0.94322   0.25547   0.71766   0.00000  Uiso   1.00
C253   C    -0.03394   0.30660   0.72448   0.00000  Uiso   1.00
H254   H     0.05864   0.48049   0.72391   0.00000  Uiso   1.00
H255   H     0.96615   0.50707   0.84865   0.00000  Uiso   1.00
H256   H     0.82226   0.28585   0.74970   0.00000  Uiso   1.00
H257   H    -0.03322   0.22266   0.70682   0.00000  Uiso   1.00
H258   H     0.00763   0.39615   0.69005   0.00000  Uiso   1.00
H259   H     0.00706   0.31258   0.71922   0.00000  Uiso   1.00
C260   C     0.87221   0.69859   0.99507   0.00000  Uiso   1.00
C261   C     0.87560   0.71136   0.04941   0.00000  Uiso   1.00
C262   C     0.83090   0.72797   0.07055   0.00000  Uiso   1.00
C263   C     0.78267   0.73158   0.03803   0.00000  Uiso   1.00
C264   C     0.77987   0.71598   0.98411   0.00000  Uiso   1.00
N265   N     0.82446   0.70094   0.96416   0.00000  Uiso   1.00
C266   C     0.92036   0.68701   0.97073   0.00000  Uiso   1.00
N267   N     0.92178   0.69787   0.92227   0.00000  Uiso   1.00
C268   C     0.96506   0.68978   0.89805   0.00000  Uiso   1.00
C269   C     0.01055   0.66929   0.92280   0.00000  Uiso   1.00
C270   C     0.00988   0.65771   0.97274   0.00000  Uiso   1.00
C271   C     0.96503   0.66644   0.99679   0.00000  Uiso   1.00
H272   H     0.83465   0.74029   0.11238   0.00000  Uiso   1.00
H273   H     0.74356   0.71925   0.95777   0.00000  Uiso   1.00
H274   H     0.96337   0.69875   0.85925   0.00000  Uiso   1.00
H275   H     0.04348   0.64074   0.99281   0.00000  Uiso   1.00
H276   H     0.91288   0.71173   0.07548   0.00000  Uiso   1.00
H277   H     0.96521   0.65604   0.03481   0.00000  Uiso   1.00
C278   C     0.57204   0.66995   0.26478   0.00000  Uiso   1.00
C279   C     0.55674   0.66070   0.21047   0.00000  Uiso   1.00
C280   C     0.56020   0.70176   0.18326   0.00000  Uiso   1.00
C281   C     0.57808   0.75230   0.20986   0.00000  Uiso   1.00
C282   C     0.58953   0.76096   0.26437   0.00000  Uiso   1.00
N283   N     0.58662   0.71997   0.29024   0.00000  Uiso   1.00
C284   C     0.57064   0.62698   0.29496   0.00000  Uiso   1.00
N285   N     0.56312   0.63853   0.34545   0.00000  Uiso   1.00
C286   C     0.55447   0.60053   0.37345   0.00000  Uiso   1.00
C287   C     0.55129   0.54746   0.34990   0.00000  Uiso   1.00
C288   C     0.56382   0.53458   0.29968   0.00000  Uiso   1.00
C289   C     0.57378   0.57422   0.27209   0.00000  Uiso   1.00
H290   H     0.55057   0.69364   0.14112   0.00000  Uiso   1.00
H291   H     0.60392   0.79941   0.28604   0.00000  Uiso   1.00
H292   H     0.54559   0.61194   0.41245   0.00000  Uiso   1.00
H293   H     0.56189   0.49406   0.28026   0.00000  Uiso   1.00
H294   H     0.54249   0.62223   0.18885   0.00000  Uiso   1.00
H295   H     0.58169   0.56334   0.23269   0.00000  Uiso   1.00
loop_
_geom_bond_atom_site_label_1
_geom_bond_atom_site_label_2
_geom_bond_distance
_geom_bond_site_symmetry_2
_ccdc_geom_bond_type
Y0     O2      2.228   .     S
Y0     O3      2.295   .     S
Y0     O6      2.242   .     S
Y0     O7      2.278   .     S
Y0     O9      2.268   .     S
Y0     O10     2.262   .     S
Y0     O11     2.253   .     S
Y1     O3      2.267   .     S
Y1     O5      2.253   .     S
Y1     O8      2.312   .     S
Y1     O9      2.252   .     S
Y1     O13     2.260   .     S
Y1     O15     2.266   .     S
Y1     O16     2.257   .     S
O2     C12     1.284   .     A
O3     C14     1.378   .     S
C4     O15     1.262   .     A
C4     O16     1.261   .     A
C4     C191    1.478   .     S
O5     C14     1.211   .     D
O6     C17     1.254   .     A
O7     C17     1.264   .     A
O8     C12     1.293   .     A
O9     C19     1.376   .     S
O10    C19     1.206   .     D
O11    C18     1.279   .     A
C12    C179    1.467   .     S
O13    C18     1.283   .     A
C14    C245    1.470   .     S
C17    C233    1.474   .     S
C18    C269    1.484   .     S
C19    C89     1.475   .     S
Y20    O22     2.229   .     S
Y20    O23     2.304   .     S
Y20    O26     2.233   .     S
Y20    O27     2.286   .     S
Y20    O29     2.269   .     S
Y20    O30     2.259   .     S
Y20    O31     2.232   .     S
Y21    O23     2.266   .     S
Y21    O25     2.256   .     S
Y21    O28     2.302   .     S
Y21    O29     2.252   .     S
Y21    O33     2.252   .     S
Y21    O35     2.275   .     S
Y21    O36     2.246   .     S
O22    C32     1.286   .     A
O23    C34     1.381   .     S
C24    O35     1.265   .     A
C24    O36     1.256   .     A
C24    C107    1.477   1_565 S
O25    C34     1.211   .     D
O26    C37     1.256   .     A
O27    C37     1.267   .     A
O28    C32     1.295   .     A
O29    C39     1.384   .     S
O30    C39     1.207   .     D
O31    C38     1.273   .     A
C32    C281    1.467   .     S
O33    C38     1.278   .     A
C34    C83     1.478   .     S
C37    C263    1.475   .     S
C38    C143    1.455   .     S
C39    C161    1.479   .     S
Y40    O42     2.221   .     S
Y40    O43     2.311   .     S
Y40    O46     2.221   .     S
Y40    O47     2.284   .     S
Y40    O49     2.266   .     S
Y40    O50     2.264   .     S
Y40    O51     2.233   .     S
Y41    O43     2.268   .     S
Y41    O45     2.236   .     S
Y41    O48     2.298   .     S
Y41    O49     2.238   .     S
Y41    O53     2.276   .     S
Y41    O55     2.264   .     S
Y41    O56     2.252   .     S
O42    C52     1.282   .     A
O43    C54     1.387   .     S
C44    O55     1.262   .     A
C44    O56     1.259   .     A
C44    C215    1.472   .     S
O45    C54     1.210   .     D
O46    C57     1.256   .     A
O47    C57     1.267   .     A
O48    C52     1.292   .     A
O49    C59     1.374   .     S
O50    C59     1.205   .     D
O51    C58     1.277   .     A
C52    C119    1.466   .     S
O53    C58     1.286   .     A
C54    C155    1.465   .     S
C57    C137    1.472   .     S
C58    C227    1.481   .     S
C59    C251    1.475   .     S
Y60    O62     2.224   .     S
Y60    O63     2.286   .     S
Y60    O66     2.242   .     S
Y60    O67     2.256   .     S
Y60    O69     2.256   .     S
Y60    O70     2.256   .     S
Y60    O71     2.240   .     S
Y61    O63     2.252   .     S
Y61    O65     2.263   .     S
Y61    O68     2.315   .     S
Y61    O69     2.248   .     S
Y61    O73     2.277   .     S
Y61    O75     2.259   .     S
Y61    O76     2.260   .     S
O62    C72     1.282   .     A
O63    C74     1.375   .     S
C64    O75     1.260   .     A
C64    O76     1.258   .     A
C64    C209    1.475   .     S
O65    C74     1.210   .     D
O66    C77     1.258   .     A
O67    C77     1.263   .     A
O68    C72     1.294   .     A
O69    C79     1.378   .     S
O70    C79     1.210   .     D
O71    C78     1.278   .     A
C72    C125    1.456   .     S
O73    C78     1.286   .     A
C74    C101    1.475   .     S
C77    C287    1.468   .     S
C78    C197    1.490   .     S
C79    C173    1.471   .     S
C80    C81     1.400   .     A
C80    N85     1.363   .     A
C80    C86     1.468   .     S
C81    H96     1.085   .     S
C81    C82     1.395   1_556 A
C82    C83     1.406   .     A
C82    H92     1.084   .     S
C82    C81     1.395   1_554 A
C83    C84     1.405   .     A
C84    H93     1.083   .     S
C84    N85     1.362   1_554 A
N85    C84     1.362   1_556 A
C86    N87     1.359   .     A
C86    C91     1.403   .     A
N87    C88     1.359   .     A
C88    C89     1.406   .     A
C88    H94     1.083   .     S
C89    C90     1.401   .     A
C90    C91     1.399   .     A
C90    H95     1.083   .     S
C91    H97     1.083   .     S
C98    C99     1.406   .     A
C98    N103    1.362   .     A
C98    C104    1.480   .     S
C99    C100    1.396   .     A
C99    H114    1.082   .     S
C100   C101    1.402   .     A
C100   H110    1.084   .     S
C101   C102    1.403   .     A
C102   N103    1.359   .     A
C102   H111    1.083   .     S
C104   N105    1.363   .     A
C104   C109    1.405   .     A
N105   C106    1.361   .     A
C106   C107    1.401   .     A
C106   H112    1.082   1_545 S
C107   C108    1.405   .     A
C107   C24     1.477   1_545 S
C108   C109    1.396   .     A
C108   H113    1.085   .     S
C109   H115    1.082   .     S
H112   C106    1.082   1_565 S
C116   C117    1.400   .     A
C116   N121    1.363   .     A
C116   C122    1.468   .     S
C117   C118    1.394   .     A
C117   H132    1.083   .     S
C118   C119    1.404   .     A
C118   H128    1.084   .     S
C119   C120    1.398   .     A
C120   N121    1.360   .     A
C120   H129    1.083   .     S
C122   N123    1.359   .     A
C122   C127    1.405   .     A
N123   C124    1.355   .     A
C124   C125    1.398   .     A
C124   H130    1.084   .     S
C125   C126    1.400   .     A
C126   C127    1.399   .     A
C126   H131    1.084   .     S
C127   H133    1.083   .     S
C134   N139    1.364   .     A
C134   C140    1.472   .     S
C134   C135    1.399   1_565 A
C135   C136    1.384   .     A
C135   H150    1.083   .     S
C135   C134    1.399   1_545 A
C136   C137    1.402   .     A
C136   H146    1.083   .     S
C137   C138    1.403   .     A
C138   H147    1.082   .     S
C138   N139    1.364   1_545 A
N139   C138    1.364   1_565 A
C140   N141    1.362   .     A
C140   C145    1.406   .     A
N141   C142    1.360   .     A
C142   H148    1.084   .     S
C142   C143    1.401   1_556 A
C143   C144    1.395   .     A
C143   C142    1.401   1_554 A
C144   H149    1.084   .     S
C144   C145    1.389   1_554 A
C145   H151    1.083   .     S
C145   C144    1.389   1_556 A
C152   C153    1.409   .     A
C152   C158    1.489   .     S
C152   N157    1.364   1_565 A
C153   C154    1.396   .     A
C153   H168    1.080   .     S
C154   H164    1.084   .     S
C154   C155    1.400   1_565 A
C155   C156    1.399   .     A
C155   C154    1.400   1_545 A
C156   N157    1.360   .     A
C156   H165    1.083   .     S
N157   C152    1.364   1_545 A
C158   N159    1.362   .     A
C158   C163    1.409   .     A
N159   C160    1.362   .     A
C160   C161    1.399   .     A
C160   H166    1.073   .     S
C161   C162    1.401   .     A
C162   C163    1.396   .     A
C162   H167    1.084   .     S
C163   H169    1.080   .     S
C170   C171    1.409   .     A
C170   N175    1.363   .     A
C170   C176    1.481   .     S
C171   C172    1.395   .     A
C171   H186    1.082   .     S
C172   C173    1.399   .     A
C172   H182    1.084   .     S
C173   C174    1.404   .     A
C174   N175    1.358   .     A
C174   H183    1.084   .     S
C176   N177    1.364   .     A
C176   C181    1.405   .     A
N177   C178    1.362   .     A
C178   C179    1.400   .     A
C178   H184    1.083   .     S
C179   C180    1.401   .     A
C180   C181    1.391   .     A
C180   H185    1.084   .     S
C181   H187    1.081   .     S
C188   C189    1.408   .     A
C188   N193    1.363   .     A
C188   C194    1.487   .     S
C189   C190    1.394   .     A
C189   H204    1.082   .     S
C190   C191    1.400   1_554 A
C190   H200    1.083   1_554 S
C191   C190    1.400   1_556 A
C191   C192    1.406   1_556 A
C192   N193    1.364   .     A
C192   H201    1.083   .     S
C192   C191    1.406   1_554 A
C194   N195    1.367   .     A
C194   C199    1.400   .     A
N195   C196    1.368   .     A
C196   C197    1.406   .     A
C196   H202    1.083   .     S
C197   C198    1.408   .     A
C198   C199    1.389   .     A
C198   H203    1.083   .     S
C199   H205    1.082   .     S
H200   C190    1.083   1_556 S
C206   C207    1.404   .     A
C206   N211    1.360   .     A
C206   C212    1.480   .     S
C207   C208    1.396   .     A
C207   H222    1.081   .     S
C208   C209    1.400   .     A
C208   H218    1.082   .     S
C209   C210    1.402   .     A
C210   N211    1.362   .     A
C210   H219    1.082   .     S
C212   N213    1.361   .     A
C212   C217    1.405   .     A
N213   C214    1.358   .     A
C214   H220    1.083   .     S
C214   C215    1.402   1_455 A
C215   C216    1.402   .     A
C215   C214    1.402   1_655 A
C216   H221    1.084   .     S
C216   C217    1.397   1_655 A
C217   H223    1.082   .     S
C217   C216    1.397   1_455 A
C224   C225    1.409   .     A
C224   N229    1.359   .     A
C224   C230    1.481   .     S
C225   C226    1.401   .     A
C225   H240    1.081   1_655 S
C226   C227    1.403   1_565 A
C226   H236    1.083   1_565 S
C227   C226    1.403   1_545 A
C227   C228    1.406   1_545 A
C228   N229    1.354   .     A
C228   H237    1.084   .     S
C228   C227    1.406   1_565 A
C230   N231    1.364   .     A
C230   C235    1.404   1_655 A
N231   C232    1.360   .     A
C232   H238    1.082   .     S
C232   C233    1.399   1_655 A
C233   C234    1.404   .     A
C233   C232    1.399   1_455 A
C234   C235    1.394   .     A
C234   H239    1.083   .     S
C235   H241    1.081   .     S
C235   C230    1.404   1_455 A
H236   C226    1.083   1_545 S
H240   C225    1.081   1_455 S
C242   N247    1.362   .     A
C242   C248    1.476   .     S
C242   C243    1.403   1_655 A
C243   C244    1.397   .     A
C243   H258    1.083   .     S
C243   C242    1.403   1_455 A
C244   C245    1.403   .     A
C244   H254    1.083   .     S
C245   C246    1.402   1_455 A
C246   N247    1.358   .     A
C246   H255    1.084   .     S
C246   C245    1.402   1_655 A
C248   N249    1.360   .     A
C248   C253    1.406   1_655 A
N249   C250    1.358   .     A
C250   C251    1.404   .     A
C250   H256    1.083   .     S
C251   C252    1.400   .     A
C252   C253    1.398   1_655 A
C252   H257    1.082   1_655 S
C253   H259    1.083   .     S
C253   C248    1.406   1_455 A
C253   C252    1.398   1_455 A
H257   C252    1.082   1_455 S
C260   N265    1.365   .     A
C260   C266    1.486   .     S
C260   C261    1.404   1_556 A
C261   C262    1.393   .     A
C261   H276    1.081   .     S
C261   C260    1.404   1_554 A
C262   C263    1.401   .     A
C262   H272    1.084   .     S
C263   C264    1.401   1_554 A
C264   N265    1.365   .     A
C264   H273    1.083   .     S
C264   C263    1.401   1_556 A
C266   N267    1.360   .     A
C266   C271    1.406   .     A
N267   C268    1.362   .     A
C268   H274    1.082   .     S
C268   C269    1.406   1_655 A
C269   C270    1.402   .     A
C269   C268    1.406   1_455 A
C270   H275    1.082   .     S
C270   C271    1.397   1_455 A
C271   C270    1.397   1_655 A
C271   H277    1.081   1_556 S
H277   C271    1.081   1_554 S
C278   C279    1.402   .     A
C278   N283    1.364   .     A
C278   C284    1.477   .     S
C279   C280    1.388   .     A
C279   H294    1.080   .     S
C280   C281    1.400   .     A
C280   H290    1.083   .     S
C281   C282    1.400   .     A
C282   N283    1.362   .     A
C282   H291    1.081   .     S
C284   N285    1.359   .     A
C284   C289    1.408   .     A
N285   C286    1.358   .     A
C286   C287    1.403   .     A
C286   H292    1.082   .     S
C287   C288    1.399   .     A
C288   C289    1.393   .     A
C288   H293    1.083   .     S
C289   H295    1.081   .     S
