data_lcy+N505+E70
_audit_creation_date              2025-01-21
_audit_creation_method            'Materials Studio'
_symmetry_space_group_name_H-M    'P1'
_symmetry_Int_Tables_number       1
_symmetry_cell_setting            triclinic
loop_
_symmetry_equiv_pos_as_xyz
  x,y,z
_cell_length_a                    17.2439
_cell_length_b                    17.5530
_cell_length_c                    17.0136
_cell_angle_alpha                 112.7205
_cell_angle_beta                  95.6712
_cell_angle_gamma                 88.5551
loop_
_atom_site_label
_atom_site_type_symbol
_atom_site_fract_x
_atom_site_fract_y
_atom_site_fract_z
_atom_site_U_iso_or_equiv
_atom_site_adp_type
_atom_site_occupancy
Yb0    Yb    0.13857   0.57737   0.76691   0.00000  Uiso   1.00
Yb1    Yb    0.24152   0.78359   0.95005   0.00000  Uiso   1.00
C2     C     0.15654   0.88672   0.03723   0.00000  Uiso   1.00
O3     O     0.15550   0.46692   0.79284   0.00000  Uiso   1.00
O4     O     0.03920   0.51389   0.78489   0.00000  Uiso   1.00
O5     O     0.09083   0.67639   0.72922   0.00000  Uiso   1.00
O6     O     0.14092   0.74286   0.85915   0.00000  Uiso   1.00
O7     O     0.13956   0.49296   0.63834   0.00000  Uiso   1.00
O8     O     0.23612   0.57698   0.69429   0.00000  Uiso   1.00
O9     O     0.34202   0.78243   0.88622   0.00000  Uiso   1.00
O10    O     0.35059   0.81519   0.02490   0.00000  Uiso   1.00
C11    C     0.08224   0.45688   0.79539   0.00000  Uiso   1.00
O12    O     0.21898   0.52123   0.83794   0.00000  Uiso   1.00
O13    O     0.24303   0.65192   0.91369   0.00000  Uiso   1.00
O14    O     0.20696   0.90699  -0.00328   0.00000  Uiso   1.00
C15    C     0.11695   0.74492   0.78692   0.00000  Uiso   1.00
O16    O     1.16255   0.81495   1.04122   0.00000  Uiso   1.00
C17    C     0.20253   0.52110   0.62704   0.00000  Uiso   1.00
C18    C     0.38593   0.80250   0.95764   0.00000  Uiso   1.00
C19    C     0.24781   0.57796   0.90811   0.00000  Uiso   1.00
Yb20   Yb    0.75798   0.92957   0.15262   0.00000  Uiso   1.00
Yb21   Yb    0.53791   0.84546   0.22185   0.00000  Uiso   1.00
C22    C     0.47962  -0.02415   0.23180   0.00000  Uiso   1.00
O23    O     0.66651   0.99061   0.11266   0.00000  Uiso   1.00
O24    O     0.76656   1.05895   0.19920   0.00000  Uiso   1.00
O25    O     0.71120   0.93310   0.26744   0.00000  Uiso   1.00
O26    O     0.61199  -0.08558   0.33396   0.00000  Uiso   1.00
O27    O     0.82499   0.93005   0.05744   0.00000  Uiso   1.00
O28    O     0.87839   0.90469   0.16721   0.00000  Uiso   1.00
O29    O     0.51622   0.74286   0.25072   0.00000  Uiso   1.00
O30    O     0.46436   0.75304   0.13185   0.00000  Uiso   1.00
C31    C     0.70881   1.05693   0.14431   0.00000  Uiso   1.00
O32    O     0.72406   0.80247   0.08033   0.00000  Uiso   1.00
O33    O     0.63662   0.78766   0.15675   0.00000  Uiso   1.00
O34    O     0.44667   0.93091   0.26462   0.00000  Uiso   1.00
C35    C     0.68251   0.93494   0.33561   0.00000  Uiso   1.00
O36    O     0.53609  -0.05557   0.18652   0.00000  Uiso   1.00
C37    C     0.88717   0.92226   0.10156   0.00000  Uiso   1.00
C38    C     0.48058   0.70804   0.17553   0.00000  Uiso   1.00
C39    C     0.65292   0.79189   0.08688   0.00000  Uiso   1.00
Yb40   Yb    0.87190   0.07638   0.78505   0.00000  Uiso   1.00
Yb41   Yb    0.76796   0.19150   0.58778   0.00000  Uiso   1.00
C42    C     0.63682   0.22983   0.54361   0.00000  Uiso   1.00
O43    O     0.81989   0.16994   0.88645   0.00000  Uiso   1.00
O44    O     0.83145   1.04302   0.88006   0.00000  Uiso   1.00
O45    O     0.76149   0.03420   0.70883   0.00000  Uiso   1.00
O46    O     0.72922   0.13531   0.66825   0.00000  Uiso   1.00
O47    O     0.98978   1.06923   0.83386   0.00000  Uiso   1.00
O48    O    -0.06520   0.96919   0.72166   0.00000  Uiso   1.00
O49    O     0.85103   0.10767   0.52602   0.00000  Uiso   1.00
O50    O     0.82775   0.21901   0.49867   0.00000  Uiso   1.00
C51    C     0.80680   1.11682   0.91924   0.00000  Uiso   1.00
O52    O     0.90460   0.14214   0.70568   0.00000  Uiso   1.00
O53    O     0.85664   0.25348   0.68667   0.00000  Uiso   1.00
O54    O     0.66548   0.15873   0.50156   0.00000  Uiso   1.00
C55    C     0.74272   0.05877   0.64865   0.00000  Uiso   1.00
O56    O     0.67799   0.27753   0.61169   0.00000  Uiso   1.00
C57    C    -0.00563   0.99523   0.77635   0.00000  Uiso   1.00
C58    C     0.86731   0.15239   0.48548   0.00000  Uiso   1.00
C59    C     0.90590   0.22081   0.72499   0.00000  Uiso   1.00
Yb60   Yb    0.28113   0.37221   0.19661   0.00000  Uiso   1.00
Yb61   Yb    0.22767   0.21923   0.36443   0.00000  Uiso   1.00
C62    C     0.35943   0.24727   0.44083   0.00000  Uiso   1.00
O63    O     0.37800   0.46221   0.23629   0.00000  Uiso   1.00
O64    O     0.36304   0.37985   0.11025   0.00000  Uiso   1.00
O65    O     0.35106   0.26515   0.18503   0.00000  Uiso   1.00
O66    O     0.27411   0.22838   0.25666   0.00000  Uiso   1.00
O67    O     0.21935   0.47982   0.20076   0.00000  Uiso   1.00
O68    O     0.22818   0.38129   0.07975   0.00000  Uiso   1.00
O69    O     0.15064   0.12019   0.30881   0.00000  Uiso   1.00
O70    O     0.16078   0.19535   0.44853   0.00000  Uiso   1.00
C71    C     0.39777   0.44297   0.16254   0.00000  Uiso   1.00
O72    O     0.18183   0.33968   0.24678   0.00000  Uiso   1.00
O73    O     0.13847   0.29702   0.33903   0.00000  Uiso   1.00
O74    O     0.33242   0.17216   0.40478   0.00000  Uiso   1.00
C75    C     0.33741   0.21786   0.22282   0.00000  Uiso   1.00
O76    O     0.31096   0.30569   0.44472   0.00000  Uiso   1.00
C77    C     0.21524   0.45755   0.12027   0.00000  Uiso   1.00
C78    C     0.12303   0.14011   0.38205   0.00000  Uiso   1.00
C79    C     0.17091   0.35373   0.32455   0.00000  Uiso   1.00
N80    N     0.51627   0.80569   0.03198   0.00000  Uiso   1.00
H81    H     0.66468   0.79351   0.92148   0.00000  Uiso   1.00
C82    C     0.59257   0.80065   0.02202   0.00000  Uiso   1.00
C83    C     0.60708   0.79889   0.94306   0.00000  Uiso   1.00
C84    C     0.47209   0.80660   0.96267   0.00000  Uiso   1.00
S85    S     0.52366   0.80141   0.87985   0.00000  Uiso   1.00
N86    N     0.39248   0.09068   0.23446   0.00000  Uiso   1.00
H87    H     0.49327   0.25954   0.26651   0.00000  Uiso   1.00
C88    C     0.40082   0.16877   0.24083   0.00000  Uiso   1.00
C89    C     0.47612   0.19849   0.26055   0.00000  Uiso   1.00
C90    C     0.46309   0.06235   0.25031   0.00000  Uiso   1.00
S91    S     0.54028   0.12961   0.27374   0.00000  Uiso   1.00
N92    N     0.49452   0.22366   0.49515   0.00000  Uiso   1.00
H93    H     0.62052   0.36468   0.49951   0.00000  Uiso   1.00
C94    C     0.56570   0.26003   0.51118   0.00000  Uiso   1.00
C95    C     0.56773   0.32938   0.49248   0.00000  Uiso   1.00
C96    C     0.44265   0.26829   0.46633   0.00000  Uiso   1.00
S97    S     0.48062   0.35056   0.45103   0.00000  Uiso   1.00
N98    N     0.74268   0.07861   1.02136   0.00000  Uiso   1.00
H99    H     0.76707   1.27208   1.04623   0.00000  Uiso   1.00
C100   C     0.76586   1.13740   0.99658   0.00000  Uiso   1.00
C101   C     0.75239   1.21601   1.05404   0.00000  Uiso   1.00
C102   C     0.71200   0.11047   1.09688   0.00000  Uiso   1.00
S103   S     0.71412   1.21628   1.14358   0.00000  Uiso   1.00
N104   N     0.70306   1.00365   0.49240   0.00000  Uiso   1.00
H105   H     0.86227  -0.05438   0.57657   0.00000  Uiso   1.00
C106   C     0.75182   0.00309   0.55877   0.00000  Uiso   1.00
C107   C     0.81560  -0.04674   0.53323   0.00000  Uiso   1.00
C108   C     0.73059  -0.04323   0.41733   0.00000  Uiso   1.00
S109   S     0.81644  -0.09215   0.42476   0.00000  Uiso   1.00
N110   N     0.18312   0.43642   0.47635   0.00000  Uiso   1.00
H111   H     0.30534   0.46250   0.35270   0.00000  Uiso   1.00
C112   C     0.20881   0.42066   0.40002   0.00000  Uiso   1.00
C113   C     0.27372   0.46752   0.40589   0.00000  Uiso   1.00
C114   C     0.22702   0.49333   0.54033   0.00000  Uiso   1.00
S115   S     0.30289   0.53292   0.50934   0.00000  Uiso   1.00
N116   N     0.22767   0.50027  -0.00099   0.00000  Uiso   1.00
H117   H     0.30548   0.68563   1.06412   0.00000  Uiso   1.00
C118   C     0.25996   0.56393  -0.01202   0.00000  Uiso   1.00
C119   C     0.28121   0.62912   0.06290   0.00000  Uiso   1.00
C120   C     0.22314   0.51959   0.08353   0.00000  Uiso   1.00
S121   S     0.25907   0.61568   0.15132   0.00000  Uiso   1.00
N122   N     0.00119   0.15281   0.44893   0.00000  Uiso   1.00
H123   H     0.02958   0.01438   0.25785   0.00000  Uiso   1.00
C124   C     0.04570   0.11035   0.38621   0.00000  Uiso   1.00
C125   C     0.00469   0.05123   0.31654   0.00000  Uiso   1.00
C126   C    -0.07322   0.12552   0.42628   0.00000  Uiso   1.00
S127   S    -0.09122   0.04586   0.32980   0.00000  Uiso   1.00
N128   N     0.04912   0.85973   0.76225   0.00000  Uiso   1.00
H129   H     0.15750   1.02708   0.81435   0.00000  Uiso   1.00
C130   C     0.06049   0.93966   0.77587   0.00000  Uiso   1.00
C131   C     0.13722   0.96450   0.79896   0.00000  Uiso   1.00
C132   C     0.11645   0.82337   0.77422   0.00000  Uiso   1.00
S133   S     0.19745   0.88647   0.80295   0.00000  Uiso   1.00
N134   N    -0.01875   0.34939   0.77028   0.00000  Uiso   1.00
H135   H     1.15657   0.34890   0.86626   0.00000  Uiso   1.00
C136   C     0.05221   0.38212   0.80386   0.00000  Uiso   1.00
C137   C     1.09689   0.33363   0.83766   0.00000  Uiso   1.00
C138   C     0.97213   0.27496   0.77547   0.00000  Uiso   1.00
S139   S     1.05058   0.24367   0.82496   0.00000  Uiso   1.00
N140   N     1.02755   0.90228   0.08640   0.00000  Uiso   1.00
H141   H     0.92555   1.05025   1.05371   0.00000  Uiso   1.00
C142   C     0.96252   0.94433   1.08364   0.00000  Uiso   1.00
C143   C     0.97211   1.00973   1.05969   0.00000  Uiso   1.00
C144   C     1.08727   0.93556   0.06435   0.00000  Uiso   1.00
S145   S     1.06514   1.01988   1.03944   0.00000  Uiso   1.00
N146   N     0.44972   0.57723   0.18541   0.00000  Uiso   1.00
H147   H     0.48668   0.59576   0.00706   0.00000  Uiso   1.00
C148   C     0.46608   0.61967   0.13854   0.00000  Uiso   1.00
C149   C     0.47269   0.57161   0.05373   0.00000  Uiso   1.00
C150   C     0.44155   0.49660   0.13558   0.00000  Uiso   1.00
S151   S     0.45575   0.46978   0.02967   0.00000  Uiso   1.00
loop_
_geom_bond_atom_site_label_1
_geom_bond_atom_site_label_2
_geom_bond_distance
_geom_bond_site_symmetry_2
_ccdc_geom_bond_type
Yb0    O3      2.155   .     S
Yb0    O4      2.176   .     S
Yb0    O5      2.190   .     S
Yb0    O7      2.117   .     S
Yb0    O8      2.182   .     S
Yb0    O12     2.208   .     S
Yb1    O6      2.142   .     S
Yb1    O9      2.130   .     S
Yb1    O13     2.150   .     S
Yb1    O10     2.121   1_556 S
Yb1    O14     2.092   1_556 S
Yb1    O16     2.070   1_455 S
C2     O14     1.296   .     A
C2     O16     1.289   1_454 A
C2     C144    1.458   1_455 S
O3     C11     1.287   .     A
O4     C11     1.288   .     A
O5     C15     1.281   .     A
O6     C15     1.271   .     A
O7     C17     1.265   .     A
O8     C17     1.280   .     A
O9     C18     1.294   .     A
O10    Yb1     2.121   1_554 S
O10    C18     1.290   1_554 A
C11    C136    1.485   .     S
O12    C19     1.286   .     A
O13    C19     1.266   .     A
O14    Yb1     2.092   1_554 S
C15    C132    1.474   .     S
O16    Yb1     2.070   1_655 S
O16    C2      1.289   1_656 A
C17    C114    1.466   .     S
C18    C84     1.482   .     S
C18    O10     1.290   1_556 A
C19    C118    1.466   1_556 S
Yb20   O23     2.089   .     S
Yb20   O24     2.100   .     S
Yb20   O25     2.165   .     S
Yb20   O27     2.083   .     S
Yb20   O28     2.121   .     S
Yb20   O32     2.153   .     S
Yb21   O29     2.092   .     S
Yb21   O30     2.094   .     S
Yb21   O33     2.138   .     S
Yb21   O34     2.126   .     S
Yb21   O26     2.133   1_565 S
Yb21   O36     2.044   1_565 S
C22    O36     1.280   .     A
C22    C90     1.453   .     S
C22    O34     1.297   1_545 A
O23    C31     1.288   .     A
O24    C31     1.287   .     A
O25    C35     1.294   .     A
O26    Yb21    2.133   1_545 S
O26    C35     1.272   1_545 A
O27    C37     1.282   .     A
O28    C37     1.291   .     A
O29    C38     1.283   .     A
O30    C38     1.287   .     A
C31    C102    1.461   1_564 S
O32    C39     1.267   .     A
O33    C39     1.278   .     A
O34    C22     1.297   1_565 A
C35    O26     1.272   1_565 A
C35    C108    1.464   1_565 S
O36    Yb21    2.044   1_545 S
C37    C142    1.458   1_554 S
C38    C148    1.449   .     S
C39    C82     1.490   .     S
Yb40   O43     2.126   .     S
Yb40   O45     2.167   .     S
Yb40   O52     2.205   .     S
Yb40   O44     2.102   1_545 S
Yb40   O47     2.138   1_545 S
Yb40   O48     2.107   1_645 S
Yb41   O46     2.133   .     S
Yb41   O49     2.078   .     S
Yb41   O50     2.120   .     S
Yb41   O53     2.125   .     S
Yb41   O54     2.120   .     S
Yb41   O56     2.094   .     S
C42    O54     1.289   .     A
C42    O56     1.290   .     A
C42    C94     1.466   .     S
O43    C51     1.292   1_545 A
O44    C51     1.290   .     A
O44    Yb40    2.102   1_565 S
O45    C55     1.268   .     A
O46    C55     1.274   .     A
O47    Yb40    2.138   1_565 S
O47    C57     1.296   1_655 A
O48    C57     1.279   .     A
O48    Yb40    2.107   1_465 S
O49    C58     1.280   .     A
O50    C58     1.292   .     A
C51    C100    1.471   .     S
C51    O43     1.292   1_565 A
O52    C59     1.290   .     A
O53    C59     1.277   .     A
C55    C106    1.484   .     S
C57    C130    1.480   .     S
C57    O47     1.296   1_455 A
C58    C126    1.450   1_655 S
C59    C138    1.475   .     S
Yb60   O63     2.197   .     S
Yb60   O64     2.178   .     S
Yb60   O65     2.161   .     S
Yb60   O67     2.126   .     S
Yb60   O68     2.166   .     S
Yb60   O72     2.168   .     S
Yb61   O66     2.134   .     S
Yb61   O69     2.069   .     S
Yb61   O70     2.090   .     S
Yb61   O73     2.153   .     S
Yb61   O74     2.129   .     S
Yb61   O76     2.086   .     S
C62    O74     1.297   .     A
C62    O76     1.292   .     A
C62    C96     1.471   .     S
O63    C71     1.247   .     A
O64    C71     1.243   .     A
O65    C75     1.269   .     A
O66    C75     1.261   .     A
O67    C77     1.266   .     A
O68    C77     1.273   .     A
O69    C78     1.294   .     A
O70    C78     1.297   .     A
C71    C150    1.451   .     S
O72    C79     1.281   .     A
O73    C79     1.268   .     A
C75    C88     1.457   .     S
C77    C120    1.465   .     S
C78    C124    1.462   .     S
C79    C112    1.471   .     S
N80    C82     1.339   .     A
N80    C84     1.344   1_554 A
H81    C83     1.082   .     S
C82    C83     1.379   1_554 A
C83    S85     1.719   .     A
C83    C82     1.379   1_556 A
C84    S85     1.711   .     A
C84    N80     1.344   1_556 A
N86    C88     1.343   .     A
N86    C90     1.346   .     A
H87    C89     1.083   .     S
C88    C89     1.372   .     A
C89    S91     1.682   .     A
C90    S91     1.713   .     A
N92    C94     1.352   .     A
N92    C96     1.352   .     A
H93    C95     1.085   .     S
C94    C95     1.374   .     A
C95    S97     1.690   .     A
C96    S97     1.719   .     A
N98    C102    1.345   .     A
N98    C100    1.339   1_545 A
H99    C101    1.082   .     S
C100   C101    1.379   .     A
C100   N98     1.339   1_565 A
C101   S103    1.717   .     A
C102   S103    1.715   1_545 A
C102   C31     1.461   1_546 S
S103   C102    1.715   1_565 A
N104   C106    1.343   1_565 A
N104   C108    1.350   1_565 A
H105   C107    1.078   .     S
C106   C107    1.384   .     A
C106   N104    1.343   1_545 A
C107   S109    1.706   .     A
C108   S109    1.711   .     A
C108   N104    1.350   1_545 A
C108   C35     1.464   1_545 S
N110   C112    1.338   .     A
N110   C114    1.338   .     A
H111   C113    1.076   .     S
C112   C113    1.378   .     A
C113   S115    1.721   .     A
C114   S115    1.714   .     A
N116   C118    1.345   .     A
N116   C120    1.354   .     A
H117   C119    1.079   1_556 S
C118   C119    1.368   .     A
C118   C19     1.466   1_554 S
C119   S121    1.690   .     A
C119   H117    1.079   1_554 S
C120   S121    1.723   .     A
N122   C124    1.342   .     A
N122   C126    1.347   .     A
H123   C125    1.082   .     S
C124   C125    1.379   .     A
C125   S127    1.701   .     A
C126   S127    1.701   .     A
C126   C58     1.450   1_455 S
N128   C130    1.347   .     A
N128   C132    1.346   .     A
H129   C131    1.085   .     S
C130   C131    1.374   .     A
C131   S133    1.716   .     A
C132   S133    1.715   .     A
N134   C136    1.341   .     A
N134   C138    1.357   1_455 A
H135   C137    1.087   .     S
C136   C137    1.381   1_455 A
C137   S139    1.716   .     A
C137   C136    1.381   1_655 A
C138   S139    1.713   .     A
C138   N134    1.357   1_655 A
N140   C144    1.349   .     A
N140   C142    1.334   1_554 A
H141   C143    1.083   .     S
C142   C143    1.377   .     A
C142   N140    1.334   1_556 A
C142   C37     1.458   1_556 S
C143   S145    1.701   .     A
C144   S145    1.715   1_554 A
C144   C2      1.458   1_655 S
S145   C144    1.715   1_556 A
N146   C148    1.336   .     A
N146   C150    1.342   .     A
H147   C149    1.082   .     S
C148   C149    1.376   .     A
C149   S151    1.699   .     A
C150   S151    1.719   .     A
