data_lcy+N144+E35
_audit_creation_date              2025-01-21
_audit_creation_method            'Materials Studio'
_symmetry_space_group_name_H-M    'P1'
_symmetry_Int_Tables_number       1
_symmetry_cell_setting            triclinic
loop_
_symmetry_equiv_pos_as_xyz
  x,y,z
_cell_length_a                    26.3132
_cell_length_b                    26.1070
_cell_length_c                    25.0658
_cell_angle_alpha                 84.7515
_cell_angle_beta                  85.5881
_cell_angle_gamma                 80.8772
loop_
_atom_site_label
_atom_site_type_symbol
_atom_site_fract_x
_atom_site_fract_y
_atom_site_fract_z
_atom_site_U_iso_or_equiv
_atom_site_adp_type
_atom_site_occupancy
C0     C     0.23243   0.71196   0.93187   0.00000  Uiso   1.00
Er1    Er    0.10600   0.61177   0.85115   0.00000  Uiso   1.00
Er2    Er    0.16756   0.65929   0.86381   0.00000  Uiso   1.00
C3     C     0.07353   0.67782   0.94264   0.00000  Uiso   1.00
O4     O     0.20110   0.59741   0.91870   0.00000  Uiso   1.00
C5     C     0.09126   0.71985   0.79122   0.00000  Uiso   1.00
C6     C     0.19717   0.59890   0.76651   0.00000  Uiso   1.00
C7     C     0.06675   0.54526   0.79940   0.00000  Uiso   1.00
O8     O     0.20725   0.68896   0.96616   0.00000  Uiso   1.00
O9     O     0.22717   0.70703   0.87778   0.00000  Uiso   1.00
O10    O     0.21663   0.62644   0.79665   0.00000  Uiso   1.00
O11    O     0.15326   0.58533   0.78037   0.00000  Uiso   1.00
O12    O     0.13467   0.72060   0.80921   0.00000  Uiso   1.00
O13    O     0.06901   0.67952   0.80135   0.00000  Uiso   1.00
C14    C     0.18327   0.55495   0.92820   0.00000  Uiso   1.00
O15    O     0.14436   0.54760   0.90392   0.00000  Uiso   1.00
O16    O     0.11553   0.69497   0.92814   0.00000  Uiso   1.00
O17    O     0.06197   0.64048   0.92013   0.00000  Uiso   1.00
O18    O     0.10987   0.56020   0.78573   0.00000  Uiso   1.00
O19    O     0.04467   0.56714   0.83948   0.00000  Uiso   1.00
C20    C     0.75639   0.89445   0.20900   0.00000  Uiso   1.00
Er21   Er    0.61252   0.83108   0.10962   0.00000  Uiso   1.00
Er22   Er    0.66796   0.84720   0.16703   0.00000  Uiso   1.00
C23    C     0.67031   0.91509   0.06141   0.00000  Uiso   1.00
O24    O     0.61069   0.90721   0.19711   0.00000  Uiso   1.00
C25    C     0.72317   0.77100   0.09578   0.00000  Uiso   1.00
C26    C     0.60819   0.76153   0.21274   0.00000  Uiso   1.00
C27    C     0.52355   0.84011   0.06657   0.00000  Uiso   1.00
O28    O     0.77689   0.89228   0.16385   0.00000  Uiso   1.00
O29    O     0.71900   0.86368   0.22702   0.00000  Uiso   1.00
O30    O     0.64136   0.78812   0.22540   0.00000  Uiso   1.00
O31    O     0.58990   0.77021   0.16680   0.00000  Uiso   1.00
O32    O     0.72844   0.79009   0.13889   0.00000  Uiso   1.00
O33    O     0.67924   0.77887   0.07574   0.00000  Uiso   1.00
C34    C     0.56675   0.91940   0.17831   0.00000  Uiso   1.00
O35    O     0.55284   0.89094   0.14466   0.00000  Uiso   1.00
O36    O     0.69281   0.90527   0.10545   0.00000  Uiso   1.00
O37    O     0.63392   0.89117   0.05328   0.00000  Uiso   1.00
O38    O     0.53017   0.86482   0.10631   0.00000  Uiso   1.00
O39    O     0.56410   0.81156   1.05090   0.00000  Uiso   1.00
C40    C     0.92896   0.24061   0.68660   0.00000  Uiso   1.00
Er41   Er    0.83086   0.11083   0.61290   0.00000  Uiso   1.00
Er42   Er    0.85162   0.17531   0.65694   0.00000  Uiso   1.00
C43    C     0.92227   0.07029   0.67437   0.00000  Uiso   1.00
O44    O     0.89568   0.20140   0.58665   0.00000  Uiso   1.00
C45    C     0.78540   0.11491   0.72960   0.00000  Uiso   1.00
C46    C     0.75381   0.20969   0.59904   0.00000  Uiso   1.00
C47    C     0.83235   0.06117   0.52650   0.00000  Uiso   1.00
O48    O     0.95676   0.20468   0.66641   0.00000  Uiso   1.00
O49    O     0.87667   0.23798   0.69802   0.00000  Uiso   1.00
O50    O     0.78145   0.22637   0.63138   0.00000  Uiso   1.00
O51    O     0.76821   0.16542   0.58131   0.00000  Uiso   1.00
O52    O     0.81015   0.15243   0.72900   0.00000  Uiso   1.00
O53    O     0.78297   0.09339   0.68625   0.00000  Uiso   1.00
C54    C     0.90862   0.17251   0.54877   0.00000  Uiso   1.00
O55    O     0.88640   0.13260   0.54642   0.00000  Uiso   1.00
O56    O     0.91755   0.11803   0.68428   0.00000  Uiso   1.00
O57    O     0.89182   0.05563   0.64441   0.00000  Uiso   1.00
O58    O     0.86006   0.09625   0.53048   0.00000  Uiso   1.00
O59    O     0.80598   0.05158   0.56953   0.00000  Uiso   1.00
C60    C     0.24753   0.28142   0.44855   0.00000  Uiso   1.00
Er61   Er    0.40675   0.37008   0.35411   0.00000  Uiso   1.00
Er62   Er    0.33510   0.33325   0.38048   0.00000  Uiso   1.00
C63    C     0.41901   0.30805   0.46057   0.00000  Uiso   1.00
O64    O     0.30186   0.39810   0.42523   0.00000  Uiso   1.00
C65    C     0.40955   0.26185   0.31374   0.00000  Uiso   1.00
C66    C     0.32685   0.39522   0.27126   0.00000  Uiso   1.00
C67    C     0.45793   0.44942   0.34958   0.00000  Uiso   1.00
O68    O     0.27605   0.27914   0.48496   0.00000  Uiso   1.00
O69    O     0.26276   0.29893   0.39661   0.00000  Uiso   1.00
O70    O     0.30080   0.37027   0.30670   0.00000  Uiso   1.00
O71    O     0.37149   0.40309   0.28111   0.00000  Uiso   1.00
O72    O     0.36535   0.26627   0.33783   0.00000  Uiso   1.00
O73    O     0.43643   0.29845   0.31411   0.00000  Uiso   1.00
C74    C     0.32721   0.43473   0.42973   0.00000  Uiso   1.00
O75    O     0.36999   0.43619   0.40160   0.00000  Uiso   1.00
O76    O     0.37444   0.29736   0.45257   0.00000  Uiso   1.00
O77    O     0.44153   0.33691   0.42618   0.00000  Uiso   1.00
O78    O     0.41380   0.44850   0.37407   0.00000  Uiso   1.00
O79    O     0.47486   0.40719   0.32877   0.00000  Uiso   1.00
C80    C     0.38693   0.82082   0.99718   0.00000  Uiso   1.00
C81    C     0.43292   0.82187   0.96485   0.00000  Uiso   1.00
C82    C     0.47665   0.83199   0.98709   0.00000  Uiso   1.00
C83    C     0.47481   0.84192   0.04109   0.00000  Uiso   1.00
C84    C     0.42755   0.84456   0.07126   0.00000  Uiso   1.00
N85    N     0.38550   0.83281   0.04915   0.00000  Uiso   1.00
C86    C     0.34289   0.79978   0.97836   0.00000  Uiso   1.00
N87    N     0.30909   0.77992   1.01542   0.00000  Uiso   1.00
C88    C     0.27220   0.75347   1.00141   0.00000  Uiso   1.00
C89    C     0.26894   0.74449   0.94749   0.00000  Uiso   1.00
C90    C     0.30222   0.76596   0.90857   0.00000  Uiso   1.00
C91    C     0.33846   0.79444   0.92364   0.00000  Uiso   1.00
H92    H     0.51267   0.82942   0.96260   0.00000  Uiso   1.00
H93    H     0.42498   0.85191   0.11322   0.00000  Uiso   1.00
H94    H     0.24668   0.73813   1.03258   0.00000  Uiso   1.00
H95    H     0.30129   0.75973   0.86656   0.00000  Uiso   1.00
H96    H     0.43699   0.81160   0.92385   0.00000  Uiso   1.00
H97    H     0.36318   0.81081   0.89239   0.00000  Uiso   1.00
C98    C     0.46363   0.11790   0.24308   0.00000  Uiso   1.00
C99    C     0.41082   0.13234   0.25625   0.00000  Uiso   1.00
C100   C     0.39354   0.17994   0.27782   0.00000  Uiso   1.00
C101   C     0.42836   0.21364   0.28649   0.00000  Uiso   1.00
C102   C     0.48055   0.19859   0.27139   0.00000  Uiso   1.00
N103   N     0.49654   0.15179   0.25084   0.00000  Uiso   1.00
C104   C     0.48602   0.06634   0.22359   0.00000  Uiso   1.00
N105   N     0.53819   0.05597   0.21653   0.00000  Uiso   1.00
C106   C     0.56349   0.00973   0.20160   0.00000  Uiso   1.00
C107   C     0.53631   0.96944   0.19275   0.00000  Uiso   1.00
C108   C     0.48232   0.97891   0.19817   0.00000  Uiso   1.00
C109   C     0.45688   0.02736   0.21381   0.00000  Uiso   1.00
H110   H     0.35273   0.19011   0.28843   0.00000  Uiso   1.00
H111   H     0.50883   0.22308   0.27754   0.00000  Uiso   1.00
H112   H     0.60522   0.00456   0.19665   0.00000  Uiso   1.00
H113   H     0.46015   0.94872   0.19163   0.00000  Uiso   1.00
H114   H     0.38288   0.10726   0.25133   0.00000  Uiso   1.00
H115   H     0.41526   0.03337   0.21849   0.00000  Uiso   1.00
C116   C     0.59820   0.25764   0.56412   0.00000  Uiso   1.00
C117   C     0.63458   0.23970   0.52363   0.00000  Uiso   1.00
C118   C     0.68667   0.22998   0.53335   0.00000  Uiso   1.00
C119   C     0.70302   0.23763   0.58355   0.00000  Uiso   1.00
C120   C     0.66591   0.25955   0.62181   0.00000  Uiso   1.00
N121   N     0.61482   0.26869   0.61143   0.00000  Uiso   1.00
C122   C     0.54257   0.26399   0.55456   0.00000  Uiso   1.00
N123   N     0.51242   0.31094   0.55948   0.00000  Uiso   1.00
C124   C     0.46542   0.32258   0.53826   0.00000  Uiso   1.00
C125   C     0.44799   0.28704   0.50760   0.00000  Uiso   1.00
C126   C     0.47564   0.23668   0.50734   0.00000  Uiso   1.00
C127   C     0.52294   0.22495   0.53096   0.00000  Uiso   1.00
H128   H     0.71400   0.21324   0.50271   0.00000  Uiso   1.00
H129   H     0.67698   0.26540   0.66125   0.00000  Uiso   1.00
H130   H     0.44462   0.36180   0.53961   0.00000  Uiso   1.00
H131   H     0.46393   0.20854   0.48343   0.00000  Uiso   1.00
H132   H     0.62263   0.23194   0.48515   0.00000  Uiso   1.00
H133   H     0.54601   0.18714   0.52679   0.00000  Uiso   1.00
C134   C     0.73345   0.04585   0.88026   0.00000  Uiso   1.00
C135   C     0.76847   0.08130   0.87853   0.00000  Uiso   1.00
C136   C     0.78299   0.10581   0.82934   0.00000  Uiso   1.00
C137   C     0.76369   0.09447   0.78162   0.00000  Uiso   1.00
C138   C     0.72787   0.06001   0.78516   0.00000  Uiso   1.00
N139   N     0.71389   0.03697   0.83358   0.00000  Uiso   1.00
C140   C     0.71715   1.01628   0.93002   0.00000  Uiso   1.00
N141   N     0.67897   0.98757   0.92700   0.00000  Uiso   1.00
C142   C     0.66280   0.95661   0.96898   0.00000  Uiso   1.00
C143   C     0.68613   0.95247   0.01810   0.00000  Uiso   1.00
C144   C     0.72508   0.98220   1.02295   0.00000  Uiso   1.00
C145   C     0.74084   1.01429   0.97897   0.00000  Uiso   1.00
H146   H     0.81089   0.13227   0.82850   0.00000  Uiso   1.00
H147   H     0.71150   0.05073   0.74957   0.00000  Uiso   1.00
H148   H     0.63251   0.93441   0.96322   0.00000  Uiso   1.00
H149   H     0.74377   0.98014   0.06029   0.00000  Uiso   1.00
H150   H     0.78518   0.09019   0.91406   0.00000  Uiso   1.00
H151   H     0.77172   1.03595   0.98341   0.00000  Uiso   1.00
C152   C     0.81322   0.99784   0.38053   0.00000  Uiso   1.00
C153   C     0.85376   0.02659   0.38249   0.00000  Uiso   1.00
C154   C     0.86118   0.04645   0.43082   0.00000  Uiso   1.00
C155   C     0.82877   0.03702   0.47665   0.00000  Uiso   1.00
C156   C     0.78970   0.00723   0.47309   0.00000  Uiso   1.00
N157   N     0.78280  -0.01090   0.42578   0.00000  Uiso   1.00
C158   C     0.80020   0.97751   0.33130   0.00000  Uiso   1.00
N159   N     0.75173   0.96606   0.33043   0.00000  Uiso   1.00
C160   C     0.73665   0.94236   0.28995   0.00000  Uiso   1.00
C161   C     0.77174   0.92755   0.24731   0.00000  Uiso   1.00
C162   C     0.82138   0.94113   0.24544   0.00000  Uiso   1.00
C163   C     0.83599   0.96604   0.28777   0.00000  Uiso   1.00
H164   H     0.89151   0.06982   0.43221   0.00000  Uiso   1.00
H165   H     0.76361  -0.00052   0.50734   0.00000  Uiso   1.00
H166   H     0.69753   0.93390   0.29205   0.00000  Uiso   1.00
H167   H     0.84931   0.93051   0.21275   0.00000  Uiso   1.00
H168   H     0.87836   1.03502   0.34717   0.00000  Uiso   1.00
H169   H     0.87519   0.97382   0.28736   0.00000  Uiso   1.00
C170   C     0.27475   0.52614   0.56194   0.00000  Uiso   1.00
C171   C     0.23971   0.50356   0.53545   0.00000  Uiso   1.00
C172   C     0.25646   0.47694   0.49020   0.00000  Uiso   1.00
C173   C     0.30815   0.47222   0.47057   0.00000  Uiso   1.00
C174   C     0.34206   0.49635   0.49726   0.00000  Uiso   1.00
N175   N     0.32489   0.52174   0.54212   0.00000  Uiso   1.00
C176   C     0.25756   0.55145   0.61254   0.00000  Uiso   1.00
N177   N     0.28956   0.54718   0.65379   0.00000  Uiso   1.00
C178   C     0.27278   0.56430   0.70309   0.00000  Uiso   1.00
C179   C     0.22087   0.58578   0.71308   0.00000  Uiso   1.00
C180   C     0.18828   0.59218   0.67056   0.00000  Uiso   1.00
C181   C     0.20645   0.57595   0.62046   0.00000  Uiso   1.00
H182   H     0.22925   0.45792   0.47192   0.00000  Uiso   1.00
H183   H     0.38259   0.49243   0.48435   0.00000  Uiso   1.00
H184   H     0.29916   0.55884   0.73495   0.00000  Uiso   1.00
H185   H     0.14815   0.60925   0.67644   0.00000  Uiso   1.00
H186   H     0.20013   0.50403   0.55103   0.00000  Uiso   1.00
H187   H     0.18014   0.58172   0.58855   0.00000  Uiso   1.00
C188   C     0.25273   0.46580   0.06152   0.00000  Uiso   1.00
C189   C     0.28266   0.49162   0.02212   0.00000  Uiso   1.00
C190   C     0.26027   0.51702   0.97668   0.00000  Uiso   1.00
C191   C     0.20815   0.51680   0.96915   0.00000  Uiso   1.00
C192   C     0.17993   0.48813   0.00746   0.00000  Uiso   1.00
N193   N     0.20239   0.46434   0.05250   0.00000  Uiso   1.00
C194   C     0.27315   0.44484   0.11448   0.00000  Uiso   1.00
N195   N     0.23978   0.43215   0.15623   0.00000  Uiso   1.00
C196   C     0.25546   0.41602   0.20655   0.00000  Uiso   1.00
C197   C     0.30746   0.41308   0.21751   0.00000  Uiso   1.00
C198   C     0.34251   0.42503   0.17493   0.00000  Uiso   1.00
C199   C     0.32587   0.44019   0.12370   0.00000  Uiso   1.00
H200   H     0.28322   0.53941   0.94857   0.00000  Uiso   1.00
H201   H     0.13937   0.48749   0.00345   0.00000  Uiso   1.00
H202   H     0.22720   0.40640   0.23799   0.00000  Uiso   1.00
H203   H     0.38326   0.42199   0.18093   0.00000  Uiso   1.00
H204   H     0.32226   0.49539   0.02674   0.00000  Uiso   1.00
H205   H     0.35476   0.44778   0.09231   0.00000  Uiso   1.00
C206   C     0.09981   0.23125   0.47085   0.00000  Uiso   1.00
C207   C     0.10934   0.26895   0.42929   0.00000  Uiso   1.00
C208   C     0.15750   0.28530   0.42267   0.00000  Uiso   1.00
C209   C     0.19609   0.26503   0.45777   0.00000  Uiso   1.00
C210   C     0.18494   0.22794   0.49937   0.00000  Uiso   1.00
N211   N     0.13784   0.21189   0.50452   0.00000  Uiso   1.00
C212   C     0.04875   0.21368   0.48022   0.00000  Uiso   1.00
N213   N     0.04567   0.16444   0.50205   0.00000  Uiso   1.00
C214   C    -0.00035   0.14796   0.51692   0.00000  Uiso   1.00
C215   C     0.95340   0.18278   0.51288   0.00000  Uiso   1.00
C216   C     0.95554   0.23309   0.48900   0.00000  Uiso   1.00
C217   C     1.00300   0.24841   0.47171   0.00000  Uiso   1.00
H218   H     0.16445   0.31414   0.39017   0.00000  Uiso   1.00
H219   H     0.21377   0.21113   0.52712   0.00000  Uiso   1.00
H220   H    -0.00052   0.10931   0.53668   0.00000  Uiso   1.00
H221   H     0.92092   0.26169   0.48735   0.00000  Uiso   1.00
H222   H     0.08030   0.28512   0.40156   0.00000  Uiso   1.00
H223   H     1.00391   0.28816   0.45553   0.00000  Uiso   1.00
C224   C     1.00901   0.92817   0.72246   0.00000  Uiso   1.00
C225   C     1.02914   0.95937   0.67962   0.00000  Uiso   1.00
C226   C     1.00423   0.00997   0.66747   0.00000  Uiso   1.00
C227   C     0.96034   0.02978   0.69859   0.00000  Uiso   1.00
C228   C     0.94391   0.99907   0.74344   0.00000  Uiso   1.00
N229   N     0.96767   0.94939   0.75354   0.00000  Uiso   1.00
C230   C     0.02950   0.87223   0.73306   0.00000  Uiso   1.00
N231   N     0.99816   0.83942   0.75861   0.00000  Uiso   1.00
C232   C     0.01544   0.78824   0.77242   0.00000  Uiso   1.00
C233   C     0.06746   0.76811   0.76210   0.00000  Uiso   1.00
C234   C     0.09981   0.80071   0.73408   0.00000  Uiso   1.00
C235   C     0.08105   0.85251   0.71929   0.00000  Uiso   1.00
H236   H     1.01667   0.03211   0.63141   0.00000  Uiso   1.00
H237   H     0.90920   1.01282   0.76740   0.00000  Uiso   1.00
H238   H     0.98965   0.76454   0.79498   0.00000  Uiso   1.00
H239   H     0.14057   0.78686   0.72658   0.00000  Uiso   1.00
H240   H     0.06137   0.94402   0.65329   0.00000  Uiso   1.00
H241   H     0.10758   0.87730   0.70023   0.00000  Uiso   1.00
C242   C     1.01073   0.42124   0.73488   0.00000  Uiso   1.00
C243   C     0.05881   0.43474   0.71517   0.00000  Uiso   1.00
C244   C     0.07619   0.47691   0.73449   0.00000  Uiso   1.00
C245   C     0.04621   0.50516   0.77366   0.00000  Uiso   1.00
C246   C     0.99775   0.49178   0.79086   0.00000  Uiso   1.00
N247   N     0.98156   0.45069   0.77144   0.00000  Uiso   1.00
C248   C     0.99099   0.37522   0.71888   0.00000  Uiso   1.00
N249   N     0.94030   0.37120   0.73089   0.00000  Uiso   1.00
C250   C     0.91958   0.32890   0.72073   0.00000  Uiso   1.00
C251   C     0.95070   0.28687   0.69778   0.00000  Uiso   1.00
C252   C     1.00298   0.29007   0.68489   0.00000  Uiso   1.00
C253   C     1.02325   0.33409   0.69510   0.00000  Uiso   1.00
H254   H     0.11363   0.48657   0.71994   0.00000  Uiso   1.00
H255   H     0.97329   0.51297   0.82075   0.00000  Uiso   1.00
H256   H     0.87897   0.32816   0.73091   0.00000  Uiso   1.00
H257   H     1.02833   0.25829   0.66723   0.00000  Uiso   1.00
H258   H     0.08318   0.41322   0.68555   0.00000  Uiso   1.00
H259   H     0.06393   0.33463   0.68552   0.00000  Uiso   1.00
C260   C     0.87459   0.73301   0.03198   0.00000  Uiso   1.00
C261   C     0.83805   0.76366   0.99963   0.00000  Uiso   1.00
C262   C     0.78584   0.77010   1.01726   0.00000  Uiso   1.00
C263   C     0.77027   0.74672   0.06712   0.00000  Uiso   1.00
C264   C     0.80741   0.71365   0.09629   0.00000  Uiso   1.00
N265   N     0.85783   0.70774   0.07833   0.00000  Uiso   1.00
C266   C     0.93073   0.72616   1.01717   0.00000  Uiso   1.00
N267   N     0.96054   0.68186   0.03629   0.00000  Uiso   1.00
C268   C     0.01113   0.66966   1.02000   0.00000  Uiso   1.00
C269   C     0.03413   0.70228   0.98095   0.00000  Uiso   1.00
C270   C     1.00590   0.75068   0.96496   0.00000  Uiso   1.00
C271   C     0.95403   0.76278   0.98283   0.00000  Uiso   1.00
H272   H     0.75836   0.79689   0.99429   0.00000  Uiso   1.00
H273   H     0.79693   0.69550   0.13525   0.00000  Uiso   1.00
H274   H     0.03181   0.63193   0.03318   0.00000  Uiso   1.00
H275   H     1.02206   0.77664   0.93429   0.00000  Uiso   1.00
H276   H     0.84948   0.78345   0.96184   0.00000  Uiso   1.00
H277   H     0.93223   0.79926   0.96790   0.00000  Uiso   1.00
C278   C     0.54997   0.63473   0.30174   0.00000  Uiso   1.00
C279   C     0.51761   0.68280   0.29345   0.00000  Uiso   1.00
C280   C     0.53779   0.72549   0.26765   0.00000  Uiso   1.00
C281   C     0.58999   0.72068   0.25031   0.00000  Uiso   1.00
C282   C     0.62181   0.67320   0.26192   0.00000  Uiso   1.00
N283   N     0.60112   0.63163   0.28610   0.00000  Uiso   1.00
C284   C     0.52864   0.58648   0.32125   0.00000  Uiso   1.00
N285   N     0.55338   0.53983   0.30559   0.00000  Uiso   1.00
C286   C     0.53293   0.49496   0.31650   0.00000  Uiso   1.00
C287   C     0.48440   0.49563   0.34404   0.00000  Uiso   1.00
C288   C     0.45940   0.54261   0.36280   0.00000  Uiso   1.00
C289   C     0.48131   0.58798   0.35161   0.00000  Uiso   1.00
H290   H     0.51228   0.76180   0.25935   0.00000  Uiso   1.00
H291   H     0.66231   0.66820   0.24876   0.00000  Uiso   1.00
H292   H     0.55383   0.45927   0.30211   0.00000  Uiso   1.00
H293   H     0.42211   0.54464   0.38467   0.00000  Uiso   1.00
H294   H     0.47654   0.68706   0.30360   0.00000  Uiso   1.00
H295   H     0.46075   0.62376   0.36600   0.00000  Uiso   1.00
loop_
_geom_bond_atom_site_label_1
_geom_bond_atom_site_label_2
_geom_bond_distance
_geom_bond_site_symmetry_2
_ccdc_geom_bond_type
C0     O8      1.218   .     D
C0     O9      1.393   .     S
C0     C89     1.475   .     S
Er1    O11     2.187   .     S
Er1    O13     2.207   .     S
Er1    O15     2.200   .     S
Er1    O17     2.132   .     S
Er1    O18     2.201   .     S
Er1    O19     2.186   .     S
Er2    O4      2.147   .     S
Er2    O9      2.218   .     S
Er2    O10     2.194   .     S
Er2    O12     2.128   .     S
Er2    O16     2.207   .     S
C3     O16     1.272   .     A
C3     O17     1.258   .     A
C3     C269    1.468   .     S
O4     C14     1.267   .     A
C5     O12     1.263   .     A
C5     O13     1.280   .     A
C5     C233    1.471   .     S
C6     O10     1.275   .     A
C6     O11     1.276   .     A
C6     C179    1.479   .     S
C7     O18     1.270   .     A
C7     O19     1.258   .     A
C7     C245    1.470   .     S
C14    O15     1.279   .     A
C14    C191    1.478   .     S
C20    O28     1.218   .     D
C20    O29     1.390   .     S
C20    C161    1.468   .     S
Er21   O31     2.165   .     S
Er21   O33     2.210   .     S
Er21   O35     2.223   .     S
Er21   O37     2.127   .     S
Er21   O38     2.211   .     S
Er21   O39     2.164   1_554 S
Er22   O24     2.142   .     S
Er22   O29     2.205   .     S
Er22   O30     2.187   .     S
Er22   O32     2.126   .     S
Er22   O36     2.200   .     S
C23    O36     1.279   .     A
C23    O37     1.262   .     A
C23    C143    1.473   .     S
O24    C34     1.265   .     A
C25    O32     1.257   .     A
C25    O33     1.275   .     A
C25    C263    1.467   .     S
C26    O30     1.272   .     A
C26    O31     1.270   .     A
C26    C281    1.470   .     S
C27    O38     1.272   .     A
C27    C83     1.468   .     S
C27    O39     1.259   1_554 A
C34    O35     1.283   .     A
C34    C107    1.480   .     S
O39    Er21    2.164   1_556 S
O39    C27     1.259   1_556 A
C40    O48     1.218   .     D
C40    O49     1.395   .     S
C40    C251    1.473   .     S
Er41   O51     2.151   .     S
Er41   O53     2.202   .     S
Er41   O55     2.225   .     S
Er41   O57     2.128   .     S
Er41   O58     2.193   .     S
Er41   O59     2.177   .     S
Er42   O44     2.152   .     S
Er42   O49     2.219   .     S
Er42   O50     2.200   .     S
Er42   O52     2.125   .     S
Er42   O56     2.211   .     S
C43    O56     1.278   .     A
C43    O57     1.263   .     A
C43    C227    1.460   .     S
O44    C54     1.260   .     A
C45    O52     1.258   .     A
C45    O53     1.278   .     A
C45    C137    1.472   .     S
C46    O50     1.277   .     A
C46    O51     1.267   .     A
C46    C119    1.479   .     S
C47    O58     1.273   .     A
C47    O59     1.264   .     A
C47    C155    1.466   .     S
C54    O55     1.281   .     A
C54    C215    1.471   .     S
C60    O68     1.217   .     D
C60    O69     1.390   .     S
C60    C209    1.479   .     S
Er61   O71     2.161   .     S
Er61   O73     2.207   .     S
Er61   O75     2.236   .     S
Er61   O77     2.137   .     S
Er61   O78     2.190   .     S
Er61   O79     2.195   .     S
Er62   O64     2.149   .     S
Er62   O69     2.224   .     S
Er62   O70     2.196   .     S
Er62   O72     2.145   .     S
Er62   O76     2.210   .     S
C63    O76     1.282   .     A
C63    O77     1.267   .     A
C63    C125    1.470   .     S
O64    C74     1.267   .     A
C65    O72     1.262   .     A
C65    O73     1.277   .     A
C65    C101    1.484   .     S
C66    O70     1.275   .     A
C66    O71     1.270   .     A
C66    C197    1.486   .     S
C67    O78     1.274   .     A
C67    O79     1.265   .     A
C67    C287    1.477   .     S
C74    O75     1.285   .     A
C74    C173    1.485   .     S
C80    C81     1.406   .     A
C80    C86     1.483   .     S
C80    N85     1.364   1_556 A
C81    C82     1.388   .     A
C81    H96     1.079   .     S
C82    H92     1.085   .     S
C82    C83     1.397   1_556 A
C83    C84     1.400   .     A
C83    C82     1.397   1_554 A
C84    N85     1.363   .     A
C84    H93     1.081   .     S
N85    C80     1.364   1_554 A
C86    N87     1.362   .     A
C86    C91     1.407   .     A
N87    C88     1.361   .     A
C88    C89     1.404   .     A
C88    H94     1.081   .     S
C89    C90     1.399   .     A
C90    C91     1.391   .     A
C90    H95     1.083   .     S
C91    H97     1.081   .     S
C98    C99     1.403   .     A
C98    N103    1.368   .     A
C98    C104    1.491   .     S
C99    C100    1.396   .     A
C99    H114    1.080   .     S
C100   C101    1.408   .     A
C100   H110    1.083   .     S
C101   C102    1.400   .     A
C102   N103    1.362   .     A
C102   H111    1.083   .     S
C104   N105    1.358   .     A
C104   C109    1.416   .     A
N105   C106    1.353   .     A
C106   H112    1.084   .     S
C106   C107    1.405   1_545 A
C107   C108    1.401   .     A
C107   C106    1.405   1_565 A
C108   H113    1.083   .     S
C108   C109    1.408   1_565 A
C109   H115    1.080   .     S
C109   C108    1.408   1_545 A
C116   C117    1.401   .     A
C116   N121    1.365   .     A
C116   C122    1.482   .     S
C117   C118    1.390   .     A
C117   H132    1.083   .     S
C118   C119    1.402   .     A
C118   H128    1.084   .     S
C119   C120    1.407   .     A
C120   N121    1.368   .     A
C120   H129    1.083   .     S
C122   N123    1.361   .     A
C122   C127    1.407   .     A
N123   C124    1.363   .     A
C124   C125    1.408   .     A
C124   H130    1.084   .     S
C125   C126    1.398   .     A
C126   C127    1.397   .     A
C126   H131    1.084   .     S
C127   H133    1.083   .     S
C134   C135    1.402   .     A
C134   N139    1.367   .     A
C134   C140    1.477   1_545 S
C135   C136    1.392   .     A
C135   H150    1.082   .     S
C136   C137    1.408   .     A
C136   H146    1.083   .     S
C137   C138    1.395   .     A
C138   N139    1.356   .     A
C138   H147    1.083   .     S
C140   N141    1.356   .     A
C140   C145    1.412   .     A
C140   C134    1.477   1_565 S
N141   C142    1.351   .     A
C142   H148    1.082   .     S
C142   C143    1.405   1_556 A
C143   C142    1.405   1_554 A
C143   C144    1.399   1_554 A
C144   C145    1.400   .     A
C144   C143    1.399   1_556 A
C144   H149    1.083   1_556 S
C145   H151    1.079   .     S
H149   C144    1.083   1_554 S
C152   C158    1.471   .     S
C152   C153    1.405   1_565 A
C152   N157    1.360   1_565 A
C153   C154    1.399   .     A
C153   C152    1.405   1_545 A
C153   H168    1.083   1_545 S
C154   C155    1.404   .     A
C154   H164    1.083   .     S
C155   C156    1.397   .     A
C156   N157    1.351   .     A
C156   H165    1.082   .     S
N157   C152    1.360   1_545 A
C158   N159    1.358   .     A
C158   C163    1.407   .     A
N159   C160    1.351   .     A
C160   C161    1.398   .     A
C160   H166    1.083   .     S
C161   C162    1.403   .     A
C162   C163    1.402   .     A
C162   H167    1.083   .     S
C163   H169    1.082   .     S
H168   C153    1.083   1_565 S
C170   C171    1.406   .     A
C170   N175    1.365   .     A
C170   C176    1.490   .     S
C171   C172    1.391   .     A
C171   H186    1.082   .     S
C172   C173    1.401   .     A
C172   H182    1.084   .     S
C173   C174    1.410   .     A
C174   N175    1.368   .     A
C174   H183    1.082   .     S
C176   N177    1.369   .     A
C176   C181    1.402   .     A
N177   C178    1.370   .     A
C178   C179    1.405   .     A
C178   H184    1.083   .     S
C179   C180    1.401   .     A
C180   C181    1.388   .     A
C180   H185    1.083   .     S
C181   H187    1.083   .     S
C188   C189    1.406   .     A
C188   N193    1.368   .     A
C188   C194    1.495   .     S
C189   H204    1.078   .     S
C189   C190    1.388   1_554 A
C190   C191    1.400   .     A
C190   H200    1.083   .     S
C190   C189    1.388   1_556 A
C191   C192    1.403   1_556 A
C192   N193    1.367   .     A
C192   H201    1.082   .     S
C192   C191    1.403   1_554 A
C194   N195    1.365   .     A
C194   C199    1.408   .     A
N195   C196    1.366   .     A
C196   C197    1.405   .     A
C196   H202    1.082   .     S
C197   C198    1.402   .     A
C198   C199    1.391   .     A
C198   H203    1.084   .     S
C199   H205    1.079   .     S
C206   C207    1.403   .     A
C206   N211    1.364   .     A
C206   C212    1.483   .     S
C207   C208    1.394   .     A
C207   H222    1.082   .     S
C208   C209    1.402   .     A
C208   H218    1.083   .     S
C209   C210    1.403   .     A
C210   N211    1.363   .     A
C210   H219    1.082   .     S
C212   N213    1.362   .     A
C212   C217    1.405   1_455 A
N213   C214    1.363   .     A
C214   H220    1.083   .     S
C214   C215    1.403   1_455 A
C215   C216    1.400   .     A
C215   C214    1.403   1_655 A
C216   C217    1.397   .     A
C216   H221    1.083   .     S
C217   H223    1.082   .     S
C217   C212    1.405   1_655 A
C224   C225    1.409   .     A
C224   N229    1.362   .     A
C224   C230    1.482   1_655 S
C225   C226    1.397   1_565 A
C225   H240    1.082   1_655 S
C226   C227    1.398   .     A
C226   H236    1.085   .     S
C226   C225    1.397   1_545 A
C227   C228    1.402   1_545 A
C228   N229    1.358   .     A
C228   H237    1.084   .     S
C228   C227    1.402   1_565 A
C230   C235    1.401   .     A
C230   C224    1.482   1_455 S
C230   N231    1.366   1_455 A
N231   C230    1.366   1_655 A
N231   C232    1.363   1_655 A
C232   C233    1.400   .     A
C232   N231    1.363   1_455 A
C232   H238    1.083   1_455 S
C233   C234    1.404   .     A
C234   C235    1.391   .     A
C234   H239    1.084   .     S
C235   H241    1.081   .     S
H238   C232    1.083   1_655 S
H240   C225    1.082   1_455 S
C242   N247    1.361   .     A
C242   C248    1.481   .     S
C242   C243    1.408   1_655 A
C243   C244    1.395   .     A
C243   H258    1.080   .     S
C243   C242    1.408   1_455 A
C244   C245    1.400   .     A
C244   H254    1.083   .     S
C245   C246    1.401   1_455 A
C246   N247    1.357   .     A
C246   H255    1.082   .     S
C246   C245    1.401   1_655 A
C248   N249    1.363   .     A
C248   C253    1.407   .     A
N249   C250    1.359   .     A
C250   C251    1.401   .     A
C250   H256    1.082   .     S
C251   C252    1.403   .     A
C252   C253    1.393   .     A
C252   H257    1.084   .     S
C253   H259    1.081   1_655 S
H259   C253    1.081   1_455 S
C260   N265    1.361   .     A
C260   C261    1.407   1_554 A
C260   C266    1.482   1_554 S
C261   C262    1.399   .     A
C261   H276    1.082   .     S
C261   C260    1.407   1_556 A
C262   H272    1.083   .     S
C262   C263    1.401   1_556 A
C263   C264    1.401   .     A
C263   C262    1.401   1_554 A
C264   N265    1.357   .     A
C264   H273    1.081   .     S
C266   C271    1.409   .     A
C266   C260    1.482   1_556 S
C266   N267    1.361   1_556 A
N267   C266    1.361   1_554 A
N267   C268    1.359   1_654 A
C268   C269    1.404   .     A
C268   N267    1.359   1_456 A
C268   H274    1.083   1_556 S
C269   C270    1.402   1_455 A
C270   C271    1.400   .     A
C270   H275    1.085   .     S
C270   C269    1.402   1_655 A
C271   H277    1.082   .     S
H274   C268    1.083   1_554 S
C278   C279    1.408   .     A
C278   N283    1.364   .     A
C278   C284    1.487   .     S
C279   C280    1.395   .     A
C279   H294    1.082   .     S
C280   C281    1.398   .     A
C280   H290    1.084   .     S
C281   C282    1.402   .     A
C282   N283    1.363   .     A
C282   H291    1.082   .     S
C284   N285    1.363   .     A
C284   C289    1.406   .     A
N285   C286    1.362   .     A
C286   C287    1.402   .     A
C286   H292    1.081   .     S
C287   C288    1.400   .     A
C288   C289    1.395   .     A
C288   H293    1.083   .     S
C289   H295    1.080   .     S
