data_lcy+N106+E70
_audit_creation_date              2025-01-21
_audit_creation_method            'Materials Studio'
_symmetry_space_group_name_H-M    'P1'
_symmetry_Int_Tables_number       1
_symmetry_cell_setting            triclinic
loop_
_symmetry_equiv_pos_as_xyz
  x,y,z
_cell_length_a                    15.3158
_cell_length_b                    16.2766
_cell_length_c                    16.9399
_cell_angle_alpha                 97.9368
_cell_angle_beta                  98.5515
_cell_angle_gamma                 88.0472
loop_
_atom_site_label
_atom_site_type_symbol
_atom_site_fract_x
_atom_site_fract_y
_atom_site_fract_z
_atom_site_U_iso_or_equiv
_atom_site_adp_type
_atom_site_occupancy
Y0     Y     0.07779   0.57142   0.78869   0.00000  Uiso   1.00
Y1     Y     0.13660   0.52691   0.96119   0.00000  Uiso   1.00
O2     O     0.20543   0.50267   0.77858   0.00000  Uiso   1.00
O3     O     0.12276   0.45086   0.83695   0.00000  Uiso   1.00
C4     C     0.19073   0.48693   1.11012   0.00000  Uiso   1.00
O5     O     0.04688   0.41567   0.92224   0.00000  Uiso   1.00
O6     O     0.07176   0.65222   0.69046   0.00000  Uiso   1.00
O7     O    -0.02817   0.56480   0.67998   0.00000  Uiso   1.00
O8     O     0.26322   0.54397   0.90650   0.00000  Uiso   1.00
O9     O     0.09609   0.64948   0.91277   0.00000  Uiso   1.00
O10    O     0.17035   0.67885   0.82336   0.00000  Uiso   1.00
O11    O    -0.05061   0.55806   0.83614   0.00000  Uiso   1.00
C12    C     0.27208   0.52623   0.83134   0.00000  Uiso   1.00
O13    O    -0.00393   0.57281   0.96859   0.00000  Uiso   1.00
C14    C     0.06458   0.39630   0.85506   0.00000  Uiso   1.00
O15    O     0.18431   0.43598   1.04680   0.00000  Uiso   1.00
O16    O     0.17628   0.56094   0.09654   0.00000  Uiso   1.00
C17    C    -0.00237   0.62762   0.65447   0.00000  Uiso   1.00
C18    C    -0.06600   0.56724   0.90869   0.00000  Uiso   1.00
C19    C     0.15815   0.69952   0.89180   0.00000  Uiso   1.00
Y20    Y     0.55849   0.82117   0.03644   0.00000  Uiso   1.00
Y21    Y     0.51275   1.00885   0.08288   0.00000  Uiso   1.00
O22    O     0.48648   0.81409   0.14338   0.00000  Uiso   1.00
O23    O     0.43135   0.89184   0.05017   0.00000  Uiso   1.00
C24    C     0.51402   0.17199   0.14310   0.00000  Uiso   1.00
O25    O     0.38653   0.99497  -0.00965   0.00000  Uiso   1.00
O26    O     0.67690   0.76738  -0.01483   0.00000  Uiso   1.00
O27    O     0.57812   0.68365   0.99632   0.00000  Uiso   1.00
O28    O     0.48406   0.95153   0.19099   0.00000  Uiso   1.00
O29    O     0.64321   0.93245   0.09959   0.00000  Uiso   1.00
O30    O     0.63741   0.82185   0.15422   0.00000  Uiso   1.00
O31    O     0.52162   0.87506  -0.07976   0.00000  Uiso   1.00
C32    C     0.47447   0.87495   0.19867   0.00000  Uiso   1.00
O33    O     0.56662   1.00380  -0.03582   0.00000  Uiso   1.00
C34    C     0.37055   0.92323  -0.00559   0.00000  Uiso   1.00
O35    O     0.44934   1.13762   0.09755   0.00000  Uiso   1.00
O36    O     0.57689   0.12214   0.15930   0.00000  Uiso   1.00
C37    C     0.65424   0.69267  -0.02280   0.00000  Uiso   1.00
C38    C     0.54291   0.94616  -0.09356   0.00000  Uiso   1.00
C39    C     0.66957   0.88961   0.16660   0.00000  Uiso   1.00
Y40    Y     0.78844   0.06141   0.60016   0.00000  Uiso   1.00
Y41    Y     0.98068   0.06419   0.55221   0.00000  Uiso   1.00
O42    O     0.77984   0.17717   0.54294   0.00000  Uiso   1.00
O43    O     0.84289   0.06228   0.47905   0.00000  Uiso   1.00
C44    C     1.15451   0.09406   0.58133   0.00000  Uiso   1.00
O45    O     0.94959  -0.00943   0.43165   0.00000  Uiso   1.00
O46    O     0.72364   0.05317   0.70861   0.00000  Uiso   1.00
O47    O     0.64411   1.02792   0.59604   0.00000  Uiso   1.00
O48    O     0.92691   0.19729   0.56038   0.00000  Uiso   1.00
O49    O     0.92668   0.06493   0.66785   0.00000  Uiso   1.00
O50    O     0.83978   0.16590   0.69828   0.00000  Uiso   1.00
O51    O     0.82113  -0.07163   0.56941   0.00000  Uiso   1.00
C52    C     0.84667   0.22393   0.54866   0.00000  Uiso   1.00
O53    O     0.96826  -0.07013   0.57399   0.00000  Uiso   1.00
C54    C     0.87013   1.00168   0.42070   0.00000  Uiso   1.00
O55    O     1.11886   0.04043   0.61226   0.00000  Uiso   1.00
O56    O     0.10204   0.12738   0.52951   0.00000  Uiso   1.00
C57    C     0.64983   0.02953   0.67186   0.00000  Uiso   1.00
C58    C     0.89564  -0.10891   0.56958   0.00000  Uiso   1.00
C59    C     0.91566   0.14233   0.71011   0.00000  Uiso   1.00
Y60    Y     0.49791   0.57310   0.47700   0.00000  Uiso   1.00
Y61    Y     0.45032   0.39875   0.51640   0.00000  Uiso   1.00
O62    O     0.63590   0.52380   0.50902   0.00000  Uiso   1.00
O63    O     0.52961   0.43846   0.42555   0.00000  Uiso   1.00
C64    C     0.39737   0.26981   0.57865   0.00000  Uiso   1.00
O65    O     0.44950   0.32996   0.39354   0.00000  Uiso   1.00
O66    O     0.42789   0.69431   0.46553   0.00000  Uiso   1.00
O67    O     0.54361   0.67218   0.41196   0.00000  Uiso   1.00
O68    O     0.59397   0.41957   0.57020   0.00000  Uiso   1.00
O69    O     0.40952   0.52886   0.55836   0.00000  Uiso   1.00
O70    O     0.51873   0.60511   0.61296   0.00000  Uiso   1.00
O71    O     0.38639   0.52854   0.38236   0.00000  Uiso   1.00
C72    C     0.65378   0.46131   0.54775   0.00000  Uiso   1.00
O73    O     0.32308   0.44852   0.45366   0.00000  Uiso   1.00
C74    C     0.49394   0.37616   0.36691   0.00000  Uiso   1.00
O75    O     0.37357   0.28431   0.50794   0.00000  Uiso   1.00
O76    O     0.45215   0.32120   0.61895   0.00000  Uiso   1.00
C77    C     0.47764   0.71937   0.42171   0.00000  Uiso   1.00
C78    C     0.32301   0.48331   0.39040   0.00000  Uiso   1.00
C79    C     0.45804   0.56660   0.62747   0.00000  Uiso   1.00
N80    N     0.27467   0.79993   0.95212   0.00000  Uiso   1.00
H81    H     0.20447   0.99339  -0.04763   0.00000  Uiso   1.00
C82    C     0.28578   0.88269   0.96151   0.00000  Uiso   1.00
C83    C     0.20750   0.92658  -0.05083   0.00000  Uiso   1.00
C84    C     0.18798   0.78117   0.93309   0.00000  Uiso   1.00
S85    S     0.11739   0.86471  -0.07479   0.00000  Uiso   1.00
N86    N     0.53286   0.27614   0.25985   0.00000  Uiso   1.00
H87    H     0.45354   0.46121   0.23370   0.00000  Uiso   1.00
C88    C     0.51394   0.35505   0.28538   0.00000  Uiso   1.00
C89    C     0.47958   0.39889   0.22376   0.00000  Uiso   1.00
C90    C     0.51373   0.25896   0.17985   0.00000  Uiso   1.00
S91    S     0.46803   0.33957   0.13144   0.00000  Uiso   1.00
N92    N     0.74928   0.34298   0.56096   0.00000  Uiso   1.00
H93    H     0.94810   0.35442   0.51210   0.00000  Uiso   1.00
C94    C     0.82773   0.31192   0.54647   0.00000  Uiso   1.00
C95    C     0.88245   0.36903   0.52706   0.00000  Uiso   1.00
C96    C     0.74223   0.42359   0.55315   0.00000  Uiso   1.00
S97    S     0.83208   0.46395   0.52309   0.00000  Uiso   1.00
N98    N     0.59579   1.00621   0.79598   0.00000  Uiso   1.00
H99    H     0.49948   0.93144   0.61391   0.00000  Uiso   1.00
C100   C     0.58348   0.99953   0.71502   0.00000  Uiso   1.00
C101   C     0.51508   0.94864   0.67856   0.00000  Uiso   1.00
C102   C     0.53682   0.96049   0.82155   0.00000  Uiso   1.00
S103   S     0.46503   0.90583   0.74610   0.00000  Uiso   1.00
N104   N     0.76051   0.96977   0.29181   0.00000  Uiso   1.00
H105   H     0.88617   0.83652   0.39194   0.00000  Uiso   1.00
C106   C     0.81676   0.94730   0.35559   0.00000  Uiso   1.00
C107   C     0.83975   0.86458   0.34823   0.00000  Uiso   1.00
C108   C     0.74125   0.90105   0.23704   0.00000  Uiso   1.00
S109   S     0.79202   0.81000   0.26320   0.00000  Uiso   1.00
N110   N     0.36163   0.53232   0.72277   0.00000  Uiso   1.00
H111   H     0.54633   0.63727   0.77814   0.00000  Uiso   1.00
C112   C     0.43517   0.56735   0.70893   0.00000  Uiso   1.00
C113   C     0.48515   0.60566   0.77734   0.00000  Uiso   1.00
C114   C     0.35509   0.54399   0.80206   0.00000  Uiso   1.00
S115   S     0.43939   0.60012   0.86139   0.00000  Uiso   1.00
N116   N     0.25099   0.50421   0.25556   0.00000  Uiso   1.00
H117   H     0.14349   0.33925   0.15801   0.00000  Uiso   1.00
C118   C     0.20650   0.45991   0.19022   0.00000  Uiso   1.00
C119   C     0.17867   0.38396   0.20413   0.00000  Uiso   1.00
C120   C     0.25657   0.46210   0.31959   0.00000  Uiso   1.00
S121   S     0.20677   0.36671   0.30160   0.00000  Uiso   1.00
N122   N     0.28031   0.17327   0.56766   0.00000  Uiso   1.00
H123   H     0.43715   0.19489   0.72441   0.00000  Uiso   1.00
C124   C     0.35599   0.20379   0.60882   0.00000  Uiso   1.00
C125   C     0.37945   0.17500   0.68194   0.00000  Uiso   1.00
C126   C     0.24465   0.12143   0.60818   0.00000  Uiso   1.00
S127   S     0.30295   0.10762   0.70031   0.00000  Uiso   1.00
N128   N     0.96481   0.75403   0.59159   0.00000  Uiso   1.00
H129   H     0.74996   0.78798   0.55116   0.00000  Uiso   1.00
C130   C     0.89365   0.80040   0.56934   0.00000  Uiso   1.00
C131   C     0.81474   0.75961   0.56403   0.00000  Uiso   1.00
C132   C     0.93965   0.67816   0.60329   0.00000  Uiso   1.00
S133   S     0.82765   0.66297   0.59005   0.00000  Uiso   1.00
N134   N     0.97510   0.27586   0.78340   0.00000  Uiso   1.00
H135   H     0.19131   0.27353   0.83290   0.00000  Uiso   1.00
C136   C     1.05313   0.31087   0.81367   0.00000  Uiso   1.00
C137   C     0.12403   0.25700   0.80892   0.00000  Uiso   1.00
C138   C     0.98740   0.19474   0.75592   0.00000  Uiso   1.00
S139   S     1.09436   0.15913   0.76733   0.00000  Uiso   1.00
N140   N     0.79929   0.63949   0.94713   0.00000  Uiso   1.00
H141   H     0.62585   0.51993   0.92863   0.00000  Uiso   1.00
C142   C     0.71413   0.62511   0.95091   0.00000  Uiso   1.00
C143   C     0.69137   0.54314   0.92928   0.00000  Uiso   1.00
C144   C     0.84140   0.56886   0.92246   0.00000  Uiso   1.00
S145   S     0.77752   0.48183   0.90102   0.00000  Uiso   1.00
N146   N     0.49481   0.80137   0.31570   0.00000  Uiso   1.00
H147   H     0.32644   0.92800   0.27261   0.00000  Uiso   1.00
C148   C     0.44917   0.85613   0.27320   0.00000  Uiso   1.00
C149   C     0.37235   0.88524   0.30125   0.00000  Uiso   1.00
C150   C     0.45364   0.78969   0.37780   0.00000  Uiso   1.00
S151   S     0.35607   0.84453   0.38493   0.00000  Uiso   1.00
loop_
_geom_bond_atom_site_label_1
_geom_bond_atom_site_label_2
_geom_bond_distance
_geom_bond_site_symmetry_2
_ccdc_geom_bond_type
Y0     O2      2.236   .     S
Y0     O3      2.275   .     S
Y0     O6      2.249   .     S
Y0     O7      2.259   .     S
Y0     O9      2.285   .     S
Y0     O10     2.247   .     S
Y0     O11     2.260   .     S
Y1     O3      2.274   .     S
Y1     O5      2.274   .     S
Y1     O8      2.310   .     S
Y1     O9      2.292   .     S
Y1     O13     2.270   .     S
Y1     O15     2.243   .     S
Y1     O16     2.278   1_556 S
O2     C12     1.284   .     A
O3     C14     1.374   .     S
C4     O15     1.255   .     A
C4     O16     1.263   1_556 A
C4     C118    1.467   1_556 S
O5     C14     1.206   .     D
O6     C17     1.256   .     A
O7     C17     1.260   .     A
O8     C12     1.292   .     A
O9     C19     1.388   .     S
O10    C19     1.202   .     D
O11    C18     1.273   .     A
C12    C114    1.483   .     S
O13    C18     1.279   .     A
C14    C136    1.472   1_455 S
O16    Y1      2.278   1_554 S
O16    C4      1.263   1_554 A
C17    C132    1.461   1_455 S
C18    C144    1.470   1_455 S
C19    C84     1.468   .     S
Y20    O22     2.274   .     S
Y20    O23     2.253   .     S
Y20    O26     2.227   .     S
Y20    O29     2.307   .     S
Y20    O30     2.172   .     S
Y20    O31     2.253   .     S
Y20    O27     2.271   1_554 S
Y21    O23     2.270   .     S
Y21    O25     2.297   .     S
Y21    O28     2.271   .     S
Y21    O29     2.319   .     S
Y21    O33     2.275   .     S
Y21    O35     2.277   .     S
Y21    O36     2.264   1_565 S
O22    C32     1.294   .     A
O23    C34     1.364   .     S
C24    O36     1.261   .     A
C24    C90     1.466   .     S
C24    O35     1.257   1_545 A
O25    C34     1.214   .     D
O26    C37     1.260   .     A
O27    Y20     2.271   1_556 S
O27    C37     1.274   1_556 A
O28    C32     1.286   .     A
O29    C39     1.415   .     S
O30    C39     1.202   .     D
O31    C38     1.274   .     A
C32    C148    1.449   .     S
O33    C38     1.278   .     A
C34    C82     1.474   1_554 S
O35    C24     1.257   1_565 A
O36    Y21     2.264   1_545 S
C37    O27     1.274   1_554 A
C37    C142    1.472   1_554 S
C38    C102    1.477   1_554 S
C39    C108    1.492   .     S
Y40    O42     2.226   .     S
Y40    O43     2.329   .     S
Y40    O46     2.235   .     S
Y40    O49     2.251   .     S
Y40    O50     2.279   .     S
Y40    O51     2.214   .     S
Y40    O47     2.283   1_545 S
Y41    O43     2.282   .     S
Y41    O45     2.215   .     S
Y41    O48     2.285   .     S
Y41    O49     2.235   .     S
Y41    O53     2.286   .     S
Y41    O55     2.253   .     S
Y41    O56     2.261   1_655 S
O42    C52     1.280   .     A
O43    C54     1.396   1_545 S
C44    O55     1.256   .     A
C44    O56     1.266   1_655 A
C44    C126    1.453   1_655 S
O45    C54     1.215   1_545 D
O46    C57     1.252   .     A
O47    Y40     2.283   1_565 S
O47    C57     1.271   1_565 A
O48    C52     1.286   .     A
O49    C59     1.379   .     S
O50    C59     1.208   .     D
O51    C58     1.274   .     A
C52    C94     1.456   .     S
O53    C58     1.285   .     A
C54    C106    1.476   .     S
C54    O43     1.396   1_565 S
C54    O45     1.215   1_565 D
O56    Y41     2.261   1_455 S
O56    C44     1.266   1_455 A
C57    O47     1.271   1_545 A
C57    C100    1.469   1_545 S
C58    C130    1.477   1_545 S
C59    C138    1.471   .     S
Y60    O62     2.251   .     S
Y60    O63     2.307   .     S
Y60    O66     2.232   .     S
Y60    O67     2.259   .     S
Y60    O69     2.269   .     S
Y60    O70     2.267   .     S
Y60    O71     2.228   .     S
Y61    O63     2.268   .     S
Y61    O65     2.221   .     S
Y61    O68     2.271   .     S
Y61    O69     2.238   .     S
Y61    O73     2.258   .     S
Y61    O75     2.213   .     S
Y61    O76     2.280   .     S
O62    C72     1.285   .     A
O63    C74     1.383   .     S
C64    O75     1.251   .     A
C64    O76     1.261   .     A
C64    C124    1.453   .     S
O65    C74     1.205   .     D
O66    C77     1.253   .     A
O67    C77     1.265   .     A
O68    C72     1.289   .     A
O69    C79     1.369   .     S
O70    C79     1.211   .     D
O71    C78     1.272   .     A
C72    C96     1.464   .     S
O73    C78     1.279   .     A
C74    C88     1.452   .     S
C77    C150    1.457   .     S
C78    C120    1.463   .     S
C79    C112    1.472   .     S
N80    C82     1.348   .     A
N80    C84     1.354   .     A
H81    C83     1.081   .     S
C82    C83     1.378   1_556 A
C82    C34     1.474   1_556 S
C83    S85     1.703   .     A
C83    C82     1.378   1_554 A
C84    S85     1.715   1_556 A
S85    C84     1.715   1_554 A
N86    C88     1.334   .     A
N86    C90     1.336   .     A
H87    C89     1.078   .     S
C88    C89     1.376   .     A
C89    S91     1.709   .     A
C90    S91     1.717   .     A
N92    C94     1.331   .     A
N92    C96     1.336   .     A
H93    C95     1.084   .     S
C94    C95     1.376   .     A
C95    S97     1.708   .     A
C96    S97     1.717   .     A
N98    C100    1.346   .     A
N98    C102    1.345   .     A
H99    C101    1.085   .     S
C100   C101    1.375   .     A
C100   C57     1.469   1_565 S
C101   S103    1.703   .     A
C102   S103    1.723   .     A
C102   C38     1.477   1_556 S
N104   C106    1.362   .     A
N104   C108    1.362   .     A
H105   C107    1.085   .     S
C106   C107    1.374   .     A
C107   S109    1.666   .     A
C108   S109    1.731   .     A
N110   C112    1.344   .     A
N110   C114    1.348   .     A
H111   C113    1.082   .     S
C112   C113    1.374   .     A
C113   S115    1.692   .     A
C114   S115    1.718   .     A
N116   C118    1.341   .     A
N116   C120    1.352   .     A
H117   C119    1.084   .     S
C118   C119    1.383   .     A
C118   C4      1.467   1_554 S
C119   S121    1.703   .     A
C120   S121    1.722   .     A
N122   C124    1.334   .     A
N122   C126    1.336   .     A
H123   C125    1.081   .     S
C124   C125    1.378   .     A
C125   S127    1.721   .     A
C126   S127    1.718   .     A
C126   C44     1.453   1_455 S
N128   C130    1.342   .     A
N128   C132    1.355   .     A
H129   C131    1.085   .     S
C130   C131    1.384   .     A
C130   C58     1.477   1_565 S
C131   S133    1.689   .     A
C132   S133    1.718   .     A
C132   C17     1.461   1_655 S
N134   C136    1.341   .     A
N134   C138    1.355   .     A
H135   C137    1.079   .     S
C136   C137    1.377   1_655 A
C136   C14     1.472   1_655 S
C137   C136    1.377   1_455 A
C137   S139    1.698   1_455 A
C138   S139    1.711   .     A
S139   C137    1.698   1_655 A
N140   C142    1.345   .     A
N140   C144    1.345   .     A
H141   C143    1.082   .     S
C142   C143    1.376   .     A
C142   C37     1.472   1_556 S
C143   S145    1.712   .     A
C144   S145    1.715   .     A
C144   C18     1.470   1_655 S
N146   C148    1.337   .     A
N146   C150    1.342   .     A
H147   C149    1.083   .     S
C148   C149    1.379   .     A
C149   S151    1.699   .     A
C150   S151    1.726   .     A
