data_lcy+N139+E14
_audit_creation_date              2025-01-21
_audit_creation_method            'Materials Studio'
_symmetry_space_group_name_H-M    'P1'
_symmetry_Int_Tables_number       1
_symmetry_cell_setting            triclinic
loop_
_symmetry_equiv_pos_as_xyz
  x,y,z
_cell_length_a                    20.3763
_cell_length_b                    19.3162
_cell_length_c                    17.2960
_cell_angle_alpha                 74.3847
_cell_angle_beta                  83.1266
_cell_angle_gamma                 79.5492
loop_
_atom_site_label
_atom_site_type_symbol
_atom_site_fract_x
_atom_site_fract_y
_atom_site_fract_z
_atom_site_U_iso_or_equiv
_atom_site_adp_type
_atom_site_occupancy
C0     C     1.03439   0.61134   0.71471   0.00000  Uiso   1.00
Sm1    Sm    0.09582   0.75246   0.97675   0.00000  Uiso   1.00
Sm2    Sm    0.14955   0.64497   0.72555   0.00000  Uiso   1.00
C3     C     0.18871   0.62589   0.89849   0.00000  Uiso   1.00
C4     C     0.22920   0.56244   0.64353   0.00000  Uiso   1.00
O5     O     0.19149   0.80648   0.94649   0.00000  Uiso   1.00
O6     O     0.19298   0.71049   1.03784   0.00000  Uiso   1.00
O7     O     0.12166   0.76576   0.71821   0.00000  Uiso   1.00
O8     O     0.11281   0.74177   0.84830   0.00000  Uiso   1.00
O9     O     0.01226   0.68412   1.01832   0.00000  Uiso   1.00
O10    O     0.99028   0.78344   0.93266   0.00000  Uiso   1.00
O11    O     0.05134   0.61507   0.78325   0.00000  Uiso   1.00
O12    O     1.06769   0.64424   0.65278   0.00000  Uiso   1.00
O13    O     0.13574   0.67430   0.89575   0.00000  Uiso   1.00
O14    O     0.21279   0.61125   0.83277   0.00000  Uiso   1.00
O15    O     0.23367   0.62990   0.63218   0.00000  Uiso   1.00
O16    O     0.18828   0.53749   0.70175   0.00000  Uiso   1.00
C17    C     0.22573   0.75962   0.99839   0.00000  Uiso   1.00
C18    C     0.10684   0.78918   0.78077   0.00000  Uiso   1.00
C19    C     0.96809   0.72721   0.97577   0.00000  Uiso   1.00
C20    C     0.58784   0.69702   0.26399   0.00000  Uiso   1.00
Sm21   Sm    0.67019   0.87506   0.15277   0.00000  Uiso   1.00
Sm22   Sm    0.57987   0.83215   0.15194   0.00000  Uiso   1.00
C23    C     0.70707   0.75183   0.07914   0.00000  Uiso   1.00
C24    C     0.48161   0.79140   1.08639   0.00000  Uiso   1.00
O25    O     0.67329   0.92101   1.01845   0.00000  Uiso   1.00
O26    O     0.75191   0.93452   1.07890   0.00000  Uiso   1.00
O27    O     0.53431   0.90582   0.23483   0.00000  Uiso   1.00
O28    O     0.60787   0.97594   0.17296   0.00000  Uiso   1.00
O29    O     0.69438   0.85033   0.28172   0.00000  Uiso   1.00
O30    O     0.75754   0.91042   0.19199   0.00000  Uiso   1.00
O31    O     0.63375   0.73408   0.24164   0.00000  Uiso   1.00
O32    O     0.53481   0.73362   0.23650   0.00000  Uiso   1.00
O33    O     0.72956   0.77247   0.13299   0.00000  Uiso   1.00
O34    O     0.64454   0.76951   0.06671   0.00000  Uiso   1.00
O35    O     0.54096   0.78804   0.05572   0.00000  Uiso   1.00
O36    O     0.47534   0.80817   0.15274   0.00000  Uiso   1.00
C37    C     0.72807   0.94435   1.01174   0.00000  Uiso   1.00
C38    C     0.55554   0.96698   0.21980   0.00000  Uiso   1.00
C39    C     0.74162   0.88734   0.26665   0.00000  Uiso   1.00
C40    C     0.82282   1.04268   0.46444   0.00000  Uiso   1.00
Sm41   Sm    0.92042   0.22187   0.71925   0.00000  Uiso   1.00
Sm42   Sm    0.85345   0.14947   0.51788   0.00000  Uiso   1.00
C43    C     0.99146   0.19671   0.52874   0.00000  Uiso   1.00
C44    C     0.73593   0.21012   0.57304   0.00000  Uiso   1.00
O45    O     0.90386   0.34093   0.65460   0.00000  Uiso   1.00
O46    O     0.99206   0.29361   0.71995   0.00000  Uiso   1.00
O47    O     0.86541   0.07386   0.64465   0.00000  Uiso   1.00
O48    O     0.83785   0.16200   0.70740   0.00000  Uiso   1.00
O49    O     1.00187   0.14041   0.67692   0.00000  Uiso   1.00
O50    O     0.97170   0.11694   0.79877   0.00000  Uiso   1.00
O51    O     0.88210   0.05261   0.46648   0.00000  Uiso   1.00
O52    O     0.77815   0.08665   0.49280   0.00000  Uiso   1.00
O53    O     0.96584   0.20583   0.59764   0.00000  Uiso   1.00
O54    O     0.95877   0.17339   0.48650   0.00000  Uiso   1.00
O55    O     0.74356   0.15209   0.54927   0.00000  Uiso   1.00
O56    O     0.78890   0.23842   0.56647   0.00000  Uiso   1.00
C57    C     0.95602   0.35132   0.68226   0.00000  Uiso   1.00
C58    C     0.84808   0.09465   0.70938   0.00000  Uiso   1.00
C59    C     1.00675   1.09419   0.74314   0.00000  Uiso   1.00
C60    C     0.32074   0.47233   0.18312   0.00000  Uiso   1.00
Sm61   Sm    0.40450   0.18408   0.49707   0.00000  Uiso   1.00
Sm62   Sm    0.40089   0.39236   0.29135   0.00000  Uiso   1.00
C63    C     0.42817   0.22291   0.32330   0.00000  Uiso   1.00
C64    C     0.50949   0.44586   0.29821   0.00000  Uiso   1.00
O65    O     0.43645   0.27333   0.53683   0.00000  Uiso   1.00
O66    O     0.46722   0.16337   0.60177   0.00000  Uiso   1.00
O67    O     0.32289   0.35774   0.39140   0.00000  Uiso   1.00
O68    O     0.37643   0.30332   0.50328   0.00000  Uiso   1.00
O69    O     0.31246   0.21170   0.42760   0.00000  Uiso   1.00
O70    O     0.30099   0.18155   0.55627   0.00000  Uiso   1.00
O71    O     0.34076   0.40452   0.18915   0.00000  Uiso   1.00
O72    O     0.33859   0.49799   0.23726   0.00000  Uiso   1.00
O73    O     0.37541   0.22526   0.37020   0.00000  Uiso   1.00
O74    O     0.45577   0.27938   0.29637   0.00000  Uiso   1.00
O75    O     0.46727   0.43055   0.35765   0.00000  Uiso   1.00
O76    O     0.49410   0.43653   0.23237   0.00000  Uiso   1.00
C77    C     0.47443   0.22970   0.58874   0.00000  Uiso   1.00
C78    C     0.33780   0.35692   0.46130   0.00000  Uiso   1.00
C79    C     0.27273   0.19971   0.49075   0.00000  Uiso   1.00
C80    C     0.38312   0.72656   0.10887   0.00000  Uiso   1.00
C81    C     0.42436   0.77169   1.05474   0.00000  Uiso   1.00
C82    C     0.40221   0.80854   0.97812   0.00000  Uiso   1.00
C83    C     0.33801   0.80429   0.95861   0.00000  Uiso   1.00
C84    C     0.29575   0.76153   1.01447   0.00000  Uiso   1.00
C85    C     0.32023   0.72087   0.08867   0.00000  Uiso   1.00
H86    H     0.39903   0.69742   0.16834   0.00000  Uiso   1.00
H87    H     0.43284   0.84382   0.93552   0.00000  Uiso   1.00
H88    H     0.32072   0.83520   0.90053   0.00000  Uiso   1.00
H89    H     0.28920   0.68759   0.13326   0.00000  Uiso   1.00
C90    C     0.42635   0.09445   0.31574   0.00000  Uiso   1.00
C91    C     0.46175   0.15289   0.30646   0.00000  Uiso   1.00
C92    C     0.52872   0.14657   0.27538   0.00000  Uiso   1.00
C93    C     0.55873   0.08475   0.25038   0.00000  Uiso   1.00
C94    C     0.52268   0.02789   0.25510   0.00000  Uiso   1.00
C95    C     0.45652   0.03250   0.28950   0.00000  Uiso   1.00
H96    H     0.37470   0.09771   0.34016   0.00000  Uiso   1.00
H97    H     0.55764   0.18995   0.26902   0.00000  Uiso   1.00
H98    H     0.61030   0.08222   0.22527   0.00000  Uiso   1.00
H99    H     0.42816  -0.01079   0.29387   0.00000  Uiso   1.00
C100   C     0.63775   0.19739   0.67072   0.00000  Uiso   1.00
C101   C     0.67021   0.24089   0.60399   0.00000  Uiso   1.00
C102   C     0.63249   0.29974   0.55327   0.00000  Uiso   1.00
C103   C     0.56287   0.30600   0.55993   0.00000  Uiso   1.00
C104   C     0.53155   0.25171   0.61544   0.00000  Uiso   1.00
C105   C     0.56844   0.20196   0.67605   0.00000  Uiso   1.00
H106   H     0.66621   0.15359   0.71217   0.00000  Uiso   1.00
H107   H     0.65658   0.33420   0.50147   0.00000  Uiso   1.00
H108   H     0.53505   0.34579   0.51322   0.00000  Uiso   1.00
H109   H     0.54508   0.16039   0.72021   0.00000  Uiso   1.00
C110   C     0.75794   0.02874   0.78820   0.00000  Uiso   1.00
C111   C     0.82356   0.04334   0.78283   0.00000  Uiso   1.00
C112   C     0.85954   0.01810   0.85220   0.00000  Uiso   1.00
C113   C     0.82884   0.98526   0.92666   0.00000  Uiso   1.00
C114   C     0.76136   0.97692   0.93311   0.00000  Uiso   1.00
C115   C     0.72676   0.99665   0.86278   0.00000  Uiso   1.00
H116   H     0.72981   0.04438   0.73517   0.00000  Uiso   1.00
H117   H     0.91061   0.02381   0.85167   0.00000  Uiso   1.00
H118   H     0.85791   0.96700   0.97915   0.00000  Uiso   1.00
H119   H     0.67491   0.98889   0.86607   0.00000  Uiso   1.00
C120   C     0.74116   0.97381   0.43700   0.00000  Uiso   1.00
C121   C     0.80658   0.98946   0.42653   0.00000  Uiso   1.00
C122   C     0.85376   0.96103   0.37164   0.00000  Uiso   1.00
C123   C     0.83416   0.92273   0.32301   0.00000  Uiso   1.00
C124   C     0.76744   0.91151   0.32907   0.00000  Uiso   1.00
C125   C     0.72159   0.93537   0.38778   0.00000  Uiso   1.00
H126   H     0.70413   0.99538   0.47870   0.00000  Uiso   1.00
H127   H     0.90474   0.97237   0.36396   0.00000  Uiso   1.00
H128   H     0.86978   0.90561   0.27720   0.00000  Uiso   1.00
H129   H     0.66949   0.92847   0.39252   0.00000  Uiso   1.00
C130   C     0.35569   0.44550   0.53541   0.00000  Uiso   1.00
C131   C     0.31289   0.41922   0.49569   0.00000  Uiso   1.00
C132   C     0.24425   0.44538   0.49980   0.00000  Uiso   1.00
C133   C     0.21820   0.49286   0.54761   0.00000  Uiso   1.00
C134   C     0.26045   0.51781   0.58868   0.00000  Uiso   1.00
C135   C     0.32974   0.49612   0.58003   0.00000  Uiso   1.00
H136   H     0.40888   0.42597   0.53300   0.00000  Uiso   1.00
H137   H     0.21053   0.42617   0.46964   0.00000  Uiso   1.00
H138   H     0.16466   0.51089   0.55149   0.00000  Uiso   1.00
H139   H     0.36282   0.51540   0.61097   0.00000  Uiso   1.00
C140   C     0.29214   0.58090  -0.02801   0.00000  Uiso   1.00
C141   C     0.22230   0.59120  -0.02700   0.00000  Uiso   1.00
C142   C     0.18426   0.56517   0.04491   0.00000  Uiso   1.00
C143   C     0.21606   0.52861   0.11533   0.00000  Uiso   1.00
C144   C     0.28591   0.51785   0.11349   0.00000  Uiso   1.00
C145   C     0.32388   0.54455   0.04203   0.00000  Uiso   1.00
H146   H     0.32214   0.60086  -0.08295   0.00000  Uiso   1.00
H147   H     0.13022   0.57185   0.04643   0.00000  Uiso   1.00
H148   H     0.18633   0.50700   0.17015   0.00000  Uiso   1.00
H149   H     0.37786   0.53625   0.04040   0.00000  Uiso   1.00
C150   C     0.17629   0.13662   0.50289   0.00000  Uiso   1.00
C151   C     0.20075   0.20237   0.48854   0.00000  Uiso   1.00
C152   C     0.15606   0.26836   0.47817   0.00000  Uiso   1.00
C153   C     0.08678   0.26757   0.48809   0.00000  Uiso   1.00
C154   C     0.06263   0.20100   0.50581   0.00000  Uiso   1.00
C155   C     0.10772   0.13599   0.50960   0.00000  Uiso   1.00
H156   H     0.21091   0.08574   0.51030   0.00000  Uiso   1.00
H157   H     0.17440   0.31957   0.46581   0.00000  Uiso   1.00
H158   H     1.05194   0.31806   0.48342   0.00000  Uiso   1.00
H159   H     0.09001   0.08417   0.52267   0.00000  Uiso   1.00
C160   C     0.05681   0.97482   0.82780   0.00000  Uiso   1.00
C161   C     1.04055   1.01891   0.75201   0.00000  Uiso   1.00
C162   C     1.04612   0.98763   0.68665   0.00000  Uiso   1.00
C163   C     1.06876   0.91361   0.69651   0.00000  Uiso   1.00
C164   C     0.08494   0.86849   0.77261   0.00000  Uiso   1.00
C165   C     0.07796   0.90011   0.83822   0.00000  Uiso   1.00
H166   H     0.05253   0.99845   0.87895   0.00000  Uiso   1.00
H167   H     1.02880   1.02024   0.62904   0.00000  Uiso   1.00
H168   H     1.06938   0.89053   0.64567   0.00000  Uiso   1.00
H169   H     0.08600   0.86757   0.89835   0.00000  Uiso   1.00
C170   C     0.96959   0.55407   0.63803   0.00000  Uiso   1.00
C171   C     0.99766   0.55380   0.70877   0.00000  Uiso   1.00
C172   C     1.01266   0.48718   0.76463   0.00000  Uiso   1.00
C173   C    -0.00269   0.42363   0.75485   0.00000  Uiso   1.00
C174   C     0.96904   0.42312   0.68585   0.00000  Uiso   1.00
C175   C     0.95387   0.48896   0.62733   0.00000  Uiso   1.00
H176   H     0.96187   0.60363   0.59057   0.00000  Uiso   1.00
H177   H     0.04272   0.48258   0.81370   0.00000  Uiso   1.00
H178   H     0.01122   0.37340   0.80064   0.00000  Uiso   1.00
H179   H     0.93306   0.48957   0.57261   0.00000  Uiso   1.00
C180   C     0.80473   0.66367   0.06744   0.00000  Uiso   1.00
C181   C     0.75849   0.71993   0.02686   0.00000  Uiso   1.00
C182   C     0.78069   0.76683   0.95447   0.00000  Uiso   1.00
C183   C     0.84971   0.76542   0.93258   0.00000  Uiso   1.00
C184   C     0.89699   0.71597   0.98173   0.00000  Uiso   1.00
C185   C     0.87358   0.66146   0.04568   0.00000  Uiso   1.00
H186   H     0.78907   0.62677   0.12308   0.00000  Uiso   1.00
H187   H     0.74614   0.81233   0.92264   0.00000  Uiso   1.00
H188   H     0.86616   0.80708   0.88178   0.00000  Uiso   1.00
H189   H     0.90828   0.62126   0.08372   0.00000  Uiso   1.00
C190   C     0.62082   0.58029   0.22856   0.00000  Uiso   1.00
C191   C     0.59928   0.61666   0.28964   0.00000  Uiso   1.00
C192   C     0.57617   0.57626   0.36547   0.00000  Uiso   1.00
C193   C     0.56645   0.50356   0.37486   0.00000  Uiso   1.00
C194   C     0.56637   0.47997   0.30479   0.00000  Uiso   1.00
C195   C     0.60168   0.51351   0.23436   0.00000  Uiso   1.00
H196   H     0.63994   0.61004   0.17033   0.00000  Uiso   1.00
H197   H     0.56002   0.60265   0.41409   0.00000  Uiso   1.00
H198   H     0.54773   0.47219   0.43307   0.00000  Uiso   1.00
H199   H     0.60531   0.49407   0.18056   0.00000  Uiso   1.00
loop_
_geom_bond_atom_site_label_1
_geom_bond_atom_site_label_2
_geom_bond_distance
_geom_bond_site_symmetry_2
_ccdc_geom_bond_type
C0     O12     1.276   .     A
C0     C171    1.479   .     S
C0     O11     1.297   1_655 A
Sm1    O5      2.316   .     S
Sm1    O6      2.270   .     S
Sm1    O8      2.266   .     S
Sm1    O9      2.274   .     S
Sm1    O13     2.307   .     S
Sm1    O10     2.290   1_455 S
Sm2    O7      2.271   .     S
Sm2    O11     2.228   .     S
Sm2    O14     2.267   .     S
Sm2    O15     2.245   .     S
Sm2    O16     2.211   .     S
Sm2    O12     2.211   1_455 S
C3     O13     1.290   .     A
C3     O14     1.266   .     A
C3     C141    1.469   1_556 S
C4     O15     1.283   .     A
C4     O16     1.275   .     A
C4     C134    1.465   .     S
O5     C17     1.263   .     A
O6     C17     1.258   .     A
O7     C18     1.266   .     A
O8     C18     1.279   .     A
O9     C19     1.266   1_455 A
O10    C19     1.266   .     A
O10    Sm1     2.290   1_655 S
O11    C0      1.297   1_455 A
O12    Sm2     2.211   1_655 S
C17    C84     1.495   .     S
C18    C164    1.489   .     S
C19    C184    1.491   .     S
C19    O9      1.266   1_655 A
C20    O31     1.243   .     A
C20    O32     1.248   .     A
C20    C191    1.478   .     S
Sm21   O28     2.212   .     S
Sm21   O29     2.247   .     S
Sm21   O30     2.253   .     S
Sm21   O33     2.214   .     S
Sm21   O25     2.250   1_554 S
Sm21   O26     2.263   1_554 S
Sm22   O27     2.290   .     S
Sm22   O31     2.296   .     S
Sm22   O32     2.328   .     S
Sm22   O34     2.300   .     S
Sm22   O35     2.334   .     S
Sm22   O36     2.258   .     S
C23    O33     1.267   .     A
C23    O34     1.286   .     A
C23    C181    1.461   .     S
C24    C81     1.494   .     S
C24    O35     1.259   1_556 A
C24    O36     1.260   1_556 A
O25    C37     1.259   .     A
O25    Sm21    2.250   1_556 S
O26    C37     1.267   .     A
O26    Sm21    2.263   1_556 S
O27    C38     1.282   .     A
O28    C38     1.268   .     A
O29    C39     1.263   .     A
O30    C39     1.270   .     A
O35    C24     1.259   1_554 A
O36    C24     1.260   1_554 A
C37    C114    1.476   .     S
C38    C94     1.486   1_565 S
C39    C124    1.469   .     S
C40    C121    1.461   .     S
C40    O51     1.263   1_565 A
C40    O52     1.276   1_565 A
Sm41   O45     2.253   .     S
Sm41   O46     2.191   .     S
Sm41   O48     2.264   .     S
Sm41   O49     2.269   .     S
Sm41   O50     2.273   .     S
Sm41   O53     2.271   .     S
Sm42   O47     2.297   .     S
Sm42   O51     2.237   .     S
Sm42   O52     2.266   .     S
Sm42   O54     2.249   .     S
Sm42   O55     2.235   .     S
Sm42   O56     2.254   .     S
C43    O53     1.286   .     A
C43    O54     1.258   .     A
C43    C154    1.468   1_655 S
C44    O55     1.273   .     A
C44    O56     1.276   .     A
C44    C101    1.464   .     S
O45    C57     1.284   .     A
O46    C57     1.278   .     A
O47    C58     1.279   .     A
O48    C58     1.271   .     A
O49    C59     1.250   1_545 A
O50    C59     1.256   1_545 A
O51    C40     1.263   1_545 A
O52    C40     1.276   1_545 A
C57    C174    1.477   .     S
C58    C111    1.482   .     S
C59    C161    1.468   .     S
C59    O49     1.250   1_565 A
C59    O50     1.256   1_565 A
C60    O71     1.279   .     A
C60    O72     1.285   .     A
C60    C144    1.461   .     S
Sm61   O65     2.241   .     S
Sm61   O66     2.247   .     S
Sm61   O68     2.299   .     S
Sm61   O69     2.253   .     S
Sm61   O70     2.235   .     S
Sm61   O73     2.236   .     S
Sm62   O67     2.252   .     S
Sm62   O71     2.207   .     S
Sm62   O72     2.229   .     S
Sm62   O74     2.249   .     S
Sm62   O75     2.208   .     S
Sm62   O76     2.243   .     S
C63    O73     1.269   .     A
C63    O74     1.269   .     A
C63    C91     1.487   .     S
C64    O75     1.265   .     A
C64    O76     1.282   .     A
C64    C194    1.463   .     S
O65    C77     1.280   .     A
O66    C77     1.272   .     A
O67    C78     1.277   .     A
O68    C78     1.287   .     A
O69    C79     1.274   .     A
O70    C79     1.268   .     A
C77    C104    1.471   .     S
C78    C131    1.467   .     S
C79    C151    1.463   .     S
C80    C85     1.398   .     A
C80    H86     1.087   .     S
C80    C81     1.407   1_554 A
C81    C82     1.409   .     A
C81    C80     1.407   1_556 A
C82    C83     1.411   .     A
C82    H87     1.082   .     S
C83    C84     1.409   .     A
C83    H88     1.084   .     S
C84    C85     1.408   1_556 A
C85    H89     1.082   .     S
C85    C84     1.408   1_554 A
C90    C91     1.411   .     A
C90    C95     1.405   .     A
C90    H96     1.083   .     S
C91    C92     1.402   .     A
C92    C93     1.392   .     A
C92    H97     1.084   .     S
C93    C94     1.408   .     A
C93    H98     1.086   .     S
C94    C95     1.404   .     A
C94    C38     1.486   1_545 S
C95    H99     1.082   .     S
C100   C101    1.404   .     A
C100   C105    1.393   .     A
C100   H106    1.078   .     S
C101   C102    1.400   .     A
C102   C103    1.395   .     A
C102   H107    1.086   .     S
C103   C104    1.408   .     A
C103   H108    1.087   .     S
C104   C105    1.404   .     A
C105   H109    1.084   .     S
C110   C111    1.403   .     A
C110   H116    1.084   .     S
C110   C115    1.403   1_545 A
C111   C112    1.407   .     A
C112   H117    1.065   .     S
C112   C113    1.401   1_545 A
C113   C114    1.401   .     A
C113   H118    1.086   .     S
C113   C112    1.401   1_565 A
C114   C115    1.407   .     A
C115   H119    1.087   .     S
C115   C110    1.403   1_565 A
C120   C121    1.400   .     A
C120   C125    1.402   .     A
C120   H126    1.087   .     S
C121   C122    1.413   .     A
C122   C123    1.392   .     A
C122   H127    1.086   .     S
C123   C124    1.402   .     A
C123   H128    1.087   .     S
C124   C125    1.409   .     A
C125   H129    1.085   .     S
C130   C131    1.408   .     A
C130   C135    1.397   .     A
C130   H136    1.081   .     S
C131   C132    1.398   .     A
C132   C133    1.390   .     A
C132   H137    1.079   .     S
C133   C134    1.400   .     A
C133   H138    1.083   .     S
C134   C135    1.400   .     A
C135   H139    1.079   .     S
C140   C141    1.399   .     A
C140   C145    1.394   .     A
C140   H146    1.084   .     S
C141   C142    1.405   .     A
C141   C3      1.469   1_554 S
C142   C143    1.401   .     A
C142   H147    1.083   .     S
C143   C144    1.398   .     A
C143   H148    1.087   .     S
C144   C145    1.402   .     A
C145   H149    1.080   .     S
C150   C151    1.398   .     A
C150   C155    1.390   .     A
C150   H156    1.087   .     S
C151   C152    1.407   .     A
C152   C153    1.404   .     A
C152   H157    1.079   .     S
C153   C154    1.404   .     A
C153   H158    1.087   1_455 S
C154   C155    1.406   .     A
C154   C43     1.468   1_455 S
C155   H159    1.083   .     S
H158   C153    1.087   1_655 S
C160   C165    1.398   .     A
C160   H166    1.088   .     S
C160   C161    1.398   1_455 A
C161   C162    1.403   .     A
C161   C160    1.398   1_655 A
C162   C163    1.391   .     A
C162   H167    1.086   .     S
C163   H168    1.086   .     S
C163   C164    1.408   1_655 A
C164   C165    1.408   .     A
C164   C163    1.408   1_455 A
C165   H169    1.075   .     S
C170   C171    1.410   .     A
C170   C175    1.416   .     A
C170   H176    1.081   .     S
C171   C172    1.393   .     A
C172   C173    1.377   1_655 A
C172   H177    1.080   1_655 S
C173   H178    1.091   .     S
C173   C172    1.377   1_455 A
C173   C174    1.389   1_455 A
C174   C175    1.406   .     A
C174   C173    1.389   1_655 A
C175   H179    1.079   .     S
H177   C172    1.080   1_455 S
C180   C181    1.392   .     A
C180   C185    1.404   .     A
C180   H186    1.084   .     S
C181   C182    1.413   1_554 A
C182   C183    1.409   .     A
C182   H187    1.086   .     S
C182   C181    1.413   1_556 A
C183   C184    1.410   .     A
C183   H188    1.086   .     S
C184   C185    1.410   1_556 A
C185   H189    1.083   .     S
C185   C184    1.410   1_554 A
C190   C191    1.407   .     A
C190   C195    1.389   .     A
C190   H196    1.083   .     S
C191   C192    1.409   .     A
C192   C193    1.417   .     A
C192   H197    1.086   .     S
C193   C194    1.405   .     A
C193   H198    1.091   .     S
C194   C195    1.398   .     A
C195   H199    1.084   .     S
