data_lcy+N139+E191
_audit_creation_date              2025-01-21
_audit_creation_method            'Materials Studio'
_symmetry_space_group_name_H-M    'P1'
_symmetry_Int_Tables_number       1
_symmetry_cell_setting            triclinic
loop_
_symmetry_equiv_pos_as_xyz
  x,y,z
_cell_length_a                    30.9762
_cell_length_b                    28.1803
_cell_length_c                    28.4718
_cell_angle_alpha                 89.1307
_cell_angle_beta                  89.7345
_cell_angle_gamma                 84.0612
loop_
_atom_site_label
_atom_site_type_symbol
_atom_site_fract_x
_atom_site_fract_y
_atom_site_fract_z
_atom_site_U_iso_or_equiv
_atom_site_adp_type
_atom_site_occupancy
C0     C     0.04525   0.57768   0.83904   0.00000  Uiso   1.00
Sm1    Sm    0.13802   0.67089   0.90173   0.00000  Uiso   1.00
Sm2    Sm    0.12224   0.60201   0.86590   0.00000  Uiso   1.00
C3     C     0.16271   0.58326   0.96458   0.00000  Uiso   1.00
C4     C     0.18164   0.56678   0.80299   0.00000  Uiso   1.00
O5     O     0.21028   0.66822   0.88555   0.00000  Uiso   1.00
O6     O     0.18311   0.72531   0.92476   0.00000  Uiso   1.00
O7     O     0.09020   0.64909   0.80766   0.00000  Uiso   1.00
O8     O     0.12202   0.71016   0.83413   0.00000  Uiso   1.00
O9     O     0.06665   0.66018   0.91044   0.00000  Uiso   1.00
O10    O     0.08703   0.72125   0.93919   0.00000  Uiso   1.00
O11    O     0.06118   0.56790   0.87947   0.00000  Uiso   1.00
O12    O     0.06760   0.60400   0.81362   0.00000  Uiso   1.00
O13    O     0.15352   0.62816   0.96767   0.00000  Uiso   1.00
O14    O     0.15797   0.56307   0.92558   0.00000  Uiso   1.00
O15    O     0.18268   0.60696   0.82197   0.00000  Uiso   1.00
O16    O     0.15072   0.54461   0.81758   0.00000  Uiso   1.00
C17    C     0.21734   0.70498   0.90730   0.00000  Uiso   1.00
C18    C     0.09893   0.69236   0.80334   0.00000  Uiso   1.00
C19    C     0.05543   0.69774   0.93219   0.00000  Uiso   1.00
C20    C     0.58493   0.75518   0.21643   0.00000  Uiso   1.00
Sm21   Sm    0.67043   0.91972   0.08095   0.00000  Uiso   1.00
Sm22   Sm    0.60836   0.80280   0.14162   0.00000  Uiso   1.00
C23    C     0.68627   0.81494   0.06639   0.00000  Uiso   1.00
C24    C     0.56021   0.78528   0.06851   0.00000  Uiso   1.00
O25    O     0.65273   0.95879   0.01438   0.00000  Uiso   1.00
O26    O     0.72059   0.93685   0.02897   0.00000  Uiso   1.00
O27    O     0.61633   0.86974   0.18321   0.00000  Uiso   1.00
O28    O     0.60802   0.91217   0.11854   0.00000  Uiso   1.00
O29    O     0.70832   0.89894   0.14550   0.00000  Uiso   1.00
O30    O     0.69043   0.97393   0.13137   0.00000  Uiso   1.00
O31    O     0.62432   0.75383   0.20249   0.00000  Uiso   1.00
O32    O     0.55792   0.78372   0.19288   0.00000  Uiso   1.00
O33    O     0.66349   0.84992   0.04744   0.00000  Uiso   1.00
O34    O     0.67341   0.79536   0.10383   0.00000  Uiso   1.00
O35    O     0.56669   0.82756   0.08055   0.00000  Uiso   1.00
O36    O     0.58214   0.75195   0.09198   0.00000  Uiso   1.00
C37    C     0.69221   0.95658   0.00003   0.00000  Uiso   1.00
C38    C     0.60915   0.91038   0.16290   0.00000  Uiso   1.00
C39    C     0.70888   0.94187   0.15942   0.00000  Uiso   1.00
C40    C     0.86680   0.05738   0.52058   0.00000  Uiso   1.00
Sm41   Sm    0.93308   0.14898   0.65460   0.00000  Uiso   1.00
Sm42   Sm    0.89492   0.13122   0.56411   0.00000  Uiso   1.00
C43    C     0.95482   0.20746   0.56091   0.00000  Uiso   1.00
C44    C     0.83047   0.20227   0.55089   0.00000  Uiso   1.00
O45    O     0.92722   0.20049   0.71540   0.00000  Uiso   1.00
O46    O     0.92169   0.22979   0.64725   0.00000  Uiso   1.00
O47    O     0.84738   0.09440   0.60763   0.00000  Uiso   1.00
O48    O     0.86032   0.14561   0.66307   0.00000  Uiso   1.00
O49    O     0.94470   0.07959   0.61538   0.00000  Uiso   1.00
O50    O     0.93838   0.07747   0.69005   0.00000  Uiso   1.00
O51    O     0.90363   0.07202   0.51255   0.00000  Uiso   1.00
O52    O     0.84661   0.07728   0.55563   0.00000  Uiso   1.00
O53    O     0.93941   0.21161   0.60274   0.00000  Uiso   1.00
O54    O     0.94559   0.17337   0.53572   0.00000  Uiso   1.00
O55    O     0.85308   0.19752   0.58761   0.00000  Uiso   1.00
O56    O     0.84391   0.17334   0.51941   0.00000  Uiso   1.00
C57    C     0.92143   0.23818   0.69082   0.00000  Uiso   1.00
C58    C     0.83869   0.11282   0.64774   0.00000  Uiso   1.00
C59    C     0.94443   0.05383   0.65255   0.00000  Uiso   1.00
C60    C     0.33224   0.37872   0.30355   0.00000  Uiso   1.00
Sm61   Sm    0.38575   0.28054   0.45564   0.00000  Uiso   1.00
Sm62   Sm    0.38195   0.34662   0.37766   0.00000  Uiso   1.00
C63    C     0.44314   0.26206   0.35758   0.00000  Uiso   1.00
C64    C     0.43668   0.41467   0.36524   0.00000  Uiso   1.00
O65    O     0.42983   0.32663   0.49399   0.00000  Uiso   1.00
O66    O     0.43819   0.25250   0.50706   0.00000  Uiso   1.00
O67    O     0.34759   0.39703   0.42761   0.00000  Uiso   1.00
O68    O     0.39653   0.35798   0.47355   0.00000  Uiso   1.00
O69    O     0.32035   0.30861   0.42735   0.00000  Uiso   1.00
O70    O     0.32790   0.29647   0.50195   0.00000  Uiso   1.00
O71    O     0.32255   0.34493   0.33034   0.00000  Uiso   1.00
O72    O     0.36651   0.39577   0.31598   0.00000  Uiso   1.00
O73    O     0.44003   0.26069   0.40240   0.00000  Uiso   1.00
O74    O     0.42000   0.29333   0.33360   0.00000  Uiso   1.00
O75    O     0.44366   0.38113   0.39533   0.00000  Uiso   1.00
O76    O     0.40438   0.41000   0.33933   0.00000  Uiso   1.00
C77    C     0.45282   0.29203   0.51358   0.00000  Uiso   1.00
C78    C     0.36711   0.39314   0.46677   0.00000  Uiso   1.00
C79    C     0.30213   0.30897   0.46792   0.00000  Uiso   1.00
Ni80   Ni    0.39845   0.75048   0.96029   0.00000  Uiso   1.00
C81    C     0.52644   0.77617   1.03396   0.00000  Uiso   1.00
C82    C     0.51697   0.72950   1.02480   0.00000  Uiso   1.00
C83    C     0.47945   0.72230   0.99965   0.00000  Uiso   1.00
C84    C     0.46179   0.80571   0.99049   0.00000  Uiso   1.00
C85    C     0.49889   0.81451   1.01535   0.00000  Uiso   1.00
H86    H     0.29469   0.66115   0.87637   0.00000  Uiso   1.00
H87    H     0.23939   0.78232   0.95539   0.00000  Uiso   1.00
H88    H     0.31355   0.79907   0.97603   0.00000  Uiso   1.00
H89    H     0.36761   0.68063   0.89852   0.00000  Uiso   1.00
N90    N     0.34407   0.74091   0.93800   0.00000  Uiso   1.00
N91    N     0.45226   0.76024   0.98406   0.00000  Uiso   1.00
H92    H     0.53695   0.69895   0.03910   0.00000  Uiso   1.00
H93    H     0.47095   0.68646   0.99447   0.00000  Uiso   1.00
H94    H     0.43936   0.83528   0.97840   0.00000  Uiso   1.00
H95    H     0.50453   0.85103   1.02233   0.00000  Uiso   1.00
C96    C     0.26109   0.72024   0.91422   0.00000  Uiso   1.00
C97    C     0.26696   0.76001   0.94161   0.00000  Uiso   1.00
C98    C     0.30897   0.76967   0.95324   0.00000  Uiso   1.00
C99    C     0.33931   0.70325   0.90985   0.00000  Uiso   1.00
C100   C     0.29789   0.69233   0.89734   0.00000  Uiso   1.00
Ni101  Ni    0.54870   0.09440   0.26441   0.00000  Uiso   1.00
C102   C     0.47354   0.22504   0.33489   0.00000  Uiso   1.00
C103   C     0.48367   0.22681   0.28681   0.00000  Uiso   1.00
C104   C     0.50856   0.18803   0.26630   0.00000  Uiso   1.00
C105   C     0.51455   0.14696   0.33952   0.00000  Uiso   1.00
C106   C     0.49028   0.18483   0.36142   0.00000  Uiso   1.00
H107   H     0.59484   0.00067   0.12652   0.00000  Uiso   1.00
H108   H     0.60285   0.92303   0.25882   0.00000  Uiso   1.00
H109   H     0.57818  -0.00143   0.29880   0.00000  Uiso   1.00
H110   H     0.57070   0.07375   0.16910   0.00000  Uiso   1.00
N111   N     0.57373   0.03975   0.23582   0.00000  Uiso   1.00
N112   N     0.52257   0.14871   0.29268   0.00000  Uiso   1.00
H113   H     0.47181   0.25720   0.26514   0.00000  Uiso   1.00
H114   H     0.51558   0.18875   0.22907   0.00000  Uiso   1.00
H115   H     0.52580   0.11532   0.35969   0.00000  Uiso   1.00
H116   H     0.48325   0.18157   0.39856   0.00000  Uiso   1.00
C117   C     0.60084   0.95551   0.18930   0.00000  Uiso   1.00
C118   C     0.59698   0.95578   0.23844   0.00000  Uiso   1.00
C119   C     0.58308  -0.00142   0.26115   0.00000  Uiso   1.00
C120   C     0.57891   0.04075   0.18847   0.00000  Uiso   1.00
C121   C     0.59250  -0.00096   0.16447   0.00000  Uiso   1.00
Ni122  Ni    0.64320   0.28179   0.55211   0.00000  Uiso   1.00
C123   C     0.78920   0.23298   0.54770   0.00000  Uiso   1.00
C124   C     0.77124   0.25570   0.58791   0.00000  Uiso   1.00
C125   C     0.72742   0.27368   0.58801   0.00000  Uiso   1.00
C126   C     0.72011   0.25035   0.50902   0.00000  Uiso   1.00
C127   C     0.76359   0.23187   0.50739   0.00000  Uiso   1.00
H128   H     0.50406   0.36370   0.50040   0.00000  Uiso   1.00
H129   H     0.49946   0.22753   0.57055   0.00000  Uiso   1.00
H130   H     0.57798   0.22532   0.58629   0.00000  Uiso   1.00
H131   H     0.58249   0.35829   0.51735   0.00000  Uiso   1.00
N132   N     0.58353   0.29214   0.55332   0.00000  Uiso   1.00
N133   N     0.70267   0.26941   0.54927   0.00000  Uiso   1.00
H134   H     0.78997   0.25652   0.61988   0.00000  Uiso   1.00
H135   H     0.71265   0.28855   0.61975   0.00000  Uiso   1.00
H136   H     0.69946   0.24695   0.47900   0.00000  Uiso   1.00
H137   H     0.77611   0.21387   0.47604   0.00000  Uiso   1.00
C138   C     0.49536   0.29627   0.53514   0.00000  Uiso   1.00
C139   C     0.51647   0.25776   0.56060   0.00000  Uiso   1.00
C140   C     0.56090   0.25643   0.56950   0.00000  Uiso   1.00
C141   C     0.56340   0.33121   0.53098   0.00000  Uiso   1.00
C142   C     0.51889   0.33424   0.52170   0.00000  Uiso   1.00
Ni143  Ni    0.74242   1.03176   0.80800   0.00000  Uiso   1.00
C144   C     0.80528   0.09532   0.67865   0.00000  Uiso   1.00
C145   C     0.78626   0.12492   0.71392   0.00000  Uiso   1.00
C146   C     0.76388   0.10514   0.75068   0.00000  Uiso   1.00
C147   C     0.77636   0.02834   0.71728   0.00000  Uiso   1.00
C148   C     0.79859   0.04681   0.67938   0.00000  Uiso   1.00
H149   H     0.77203   0.94769   0.95796   0.00000  Uiso   1.00
H150   H     0.63850   1.00378   0.93476   0.00000  Uiso   1.00
H151   H     0.65963   1.03310   0.85658   0.00000  Uiso   1.00
H152   H     0.79013   0.97807   0.87932   0.00000  Uiso   1.00
N153   N     0.72576   1.00664   0.86444   0.00000  Uiso   1.00
N154   N     0.76069   0.05745   0.75251   0.00000  Uiso   1.00
H155   H     0.79096   0.16246   0.71462   0.00000  Uiso   1.00
H156   H     0.75147   0.12727   0.77946   0.00000  Uiso   1.00
H157   H     0.77392  -0.00962   0.72007   0.00000  Uiso   1.00
H158   H     0.81350   0.02279   0.65320   0.00000  Uiso   1.00
C159   C     0.70386   0.97419   0.95303   0.00000  Uiso   1.00
C160   C     0.67203   0.99776   0.92352   0.00000  Uiso   1.00
C161   C     0.68380   1.01404   0.87910   0.00000  Uiso   1.00
C162   C     0.75701   0.98317   0.89196   0.00000  Uiso   1.00
C163   C     0.74672   0.96645   0.93659   0.00000  Uiso   1.00
Ni164  Ni    0.78342   0.98075   0.35193   0.00000  Uiso   1.00
C165   C     0.84709   1.02600   0.48766   0.00000  Uiso   1.00
C166   C     0.80179   1.02630   0.48562   0.00000  Uiso   1.00
C167   C     0.78276   1.00931   0.44550   0.00000  Uiso   1.00
C168   C     0.85209   0.98760   0.41213   0.00000  Uiso   1.00
C169   C     0.87239   1.00440   0.45132   0.00000  Uiso   1.00
H170   H     0.75346   0.87916   0.21999   0.00000  Uiso   1.00
H171   H     0.70709   1.02841   0.20377   0.00000  Uiso   1.00
H172   H     0.73640   1.04220   0.28260   0.00000  Uiso   1.00
H173   H     0.78155   0.89623   0.29802   0.00000  Uiso   1.00
N174   N     0.75970   0.96971   0.29419   0.00000  Uiso   1.00
N175   N     0.80807   0.99216   0.40907   0.00000  Uiso   1.00
H176   H     0.78123   1.04307   0.51283   0.00000  Uiso   1.00
H177   H     0.74780   1.01238   0.44231   0.00000  Uiso   1.00
H178   H     0.87145   0.97356   0.38280   0.00000  Uiso   1.00
H179   H     0.90743   0.00362   0.45161   0.00000  Uiso   1.00
C180   C     0.72774   0.95248   0.20541   0.00000  Uiso   1.00
C181   C     0.72319   0.99874   0.22369   0.00000  Uiso   1.00
C182   C     0.73952   1.00660   0.26847   0.00000  Uiso   1.00
C183   C     0.76480   0.92474   0.27715   0.00000  Uiso   1.00
C184   C     0.74900   0.91530   0.23276   0.00000  Uiso   1.00
Ni185  Ni    0.29161   0.49543   0.63698   0.00000  Uiso   1.00
C186   C     0.35479   0.42572   0.50574   0.00000  Uiso   1.00
C187   C     0.32060   0.46216   0.50091   0.00000  Uiso   1.00
C188   C     0.30358   0.48550   0.54092   0.00000  Uiso   1.00
C189   C     0.35508   0.44005   0.58925   0.00000  Uiso   1.00
C190   C     0.37310   0.41600   0.55037   0.00000  Uiso   1.00
H191   H     0.24519   0.61216   0.75926   0.00000  Uiso   1.00
H192   H     0.18564   0.48000   0.76219   0.00000  Uiso   1.00
H193   H     0.23106   0.45295   0.69459   0.00000  Uiso   1.00
H194   H     0.28946   0.58202   0.69129   0.00000  Uiso   1.00
N195   N     0.26206   0.51626   0.69001   0.00000  Uiso   1.00
N196   N     0.32034   0.47315   0.58399   0.00000  Uiso   1.00
H197   H     0.30573   0.47069   0.46708   0.00000  Uiso   1.00
H198   H     0.27560   0.51169   0.53796   0.00000  Uiso   1.00
H199   H     0.36723   0.43047   0.62405   0.00000  Uiso   1.00
H200   H     0.39937   0.38810   0.55588   0.00000  Uiso   1.00
C201   C     0.21188   0.54834   0.76601   0.00000  Uiso   1.00
C202   C     0.20856   0.50289   0.74782   0.00000  Uiso   1.00
C203   C     0.23416   0.48752   0.70956   0.00000  Uiso   1.00
C204   C     0.26696   0.55996   0.70770   0.00000  Uiso   1.00
C205   C     0.24197   0.57680   0.74616   0.00000  Uiso   1.00
Ni206  Ni    0.23615   0.46740   0.13299   0.00000  Uiso   1.00
C207   C     0.17870   0.55441   1.00579   0.00000  Uiso   1.00
C208   C     0.19423   0.50610   1.00082   0.00000  Uiso   1.00
C209   C     0.20980   0.47952   0.04010   0.00000  Uiso   1.00
C210   C     0.19489   0.54688   0.08871   0.00000  Uiso   1.00
C211   C     0.17916   0.57481   1.05041   0.00000  Uiso   1.00
H212   H     0.35234   0.45087   0.24717   0.00000  Uiso   1.00
H213   H     0.25817   0.34879   0.26409   0.00000  Uiso   1.00
H214   H     0.21957   0.38528   0.19385   0.00000  Uiso   1.00
H215   H     0.31236   0.48439   0.17838   0.00000  Uiso   1.00
N216   N     0.26423   0.43668   0.18328   0.00000  Uiso   1.00
N217   N     0.20966   0.50020   0.08291   0.00000  Uiso   1.00
H218   H     0.19545   0.48940   0.96674   0.00000  Uiso   1.00
H219   H     0.22333   0.44285   0.03618   0.00000  Uiso   1.00
H220   H     0.19670   0.56275   0.12293   0.00000  Uiso   1.00
H221   H     0.16824   0.61214   1.05552   0.00000  Uiso   1.00
C222   C     0.30790   0.39749   0.26171   0.00000  Uiso   1.00
C223   C     0.27045   0.37866   0.24594   0.00000  Uiso   1.00
C224   C     0.24872   0.39910   0.20618   0.00000  Uiso   1.00
C225   C     0.30083   0.45466   0.19746   0.00000  Uiso   1.00
C226   C     0.32326   0.43561   0.23660   0.00000  Uiso   1.00
Ni227  Ni    0.11072   0.30503   0.50328   0.00000  Uiso   1.00
C228   C     0.25481   0.31973   0.47504   0.00000  Uiso   1.00
C229   C     0.22605   0.31861   0.43722   0.00000  Uiso   1.00
C230   C     0.18160   0.31815   0.44606   0.00000  Uiso   1.00
C231   C     0.19300   0.32490   0.52780   0.00000  Uiso   1.00
C232   C     0.23766   0.32485   0.52063   0.00000  Uiso   1.00
H233   H     0.99006   0.21172   0.47294   0.00000  Uiso   1.00
H234   H     0.99062   0.27682   0.60947   0.00000  Uiso   1.00
H235   H     0.05387   0.31712   0.58426   0.00000  Uiso   1.00
H236   H     0.05291   0.25389   0.45062   0.00000  Uiso   1.00
N237   N     0.05611   0.28760   0.51620   0.00000  Uiso   1.00
N238   N     0.16626   0.31991   0.49091   0.00000  Uiso   1.00
H239   H     0.23804   0.31476   0.40155   0.00000  Uiso   1.00
H240   H     0.15971   0.31340   0.41743   0.00000  Uiso   1.00
H241   H     0.17992   0.32581   0.56310   0.00000  Uiso   1.00
H242   H     0.25873   0.32619   0.55070   0.00000  Uiso   1.00
C243   C     0.98521   0.24076   0.54317   0.00000  Uiso   1.00
C244   C     1.00258   0.27245   0.57381   0.00000  Uiso   1.00
C245   C     0.03845   0.29545   0.55959   0.00000  Uiso   1.00
C246   C     0.03790   0.25995   0.48469   0.00000  Uiso   1.00
C247   C     1.00228   0.23603   0.49751   0.00000  Uiso   1.00
Ni248  Ni    1.00731   0.84836   0.68538   0.00000  Uiso   1.00
C249   C     0.95160   1.00137   0.65336   0.00000  Uiso   1.00
C250   C     0.93631   0.97604   0.69166   0.00000  Uiso   1.00
C251   C     0.94969   0.92756   0.69714   0.00000  Uiso   1.00
C252   C     0.99091   0.92801   0.62678   0.00000  Uiso   1.00
C253   C     0.97768   0.97660   0.61947   0.00000  Uiso   1.00
H254   H     1.02268   0.68692   0.75629   0.00000  Uiso   1.00
H255   H     0.13310   0.76843   0.76394   0.00000  Uiso   1.00
H256   H     0.09383   0.83056   0.71426   0.00000  Uiso   1.00
H257   H     0.98548   0.75129   0.70648   0.00000  Uiso   1.00
N258   N     0.03821   0.79362   0.70788   0.00000  Uiso   1.00
N259   N     0.97775   0.90509   0.66590   0.00000  Uiso   1.00
H260   H     0.91603   0.99407   0.71838   0.00000  Uiso   1.00
H261   H     0.94044   0.90863   0.72834   0.00000  Uiso   1.00
H262   H     0.01404   0.90948   0.60308   0.00000  Uiso   1.00
H263   H     0.99033   0.99526   0.58972   0.00000  Uiso   1.00
C264   C     0.08061   0.72315   0.76459   0.00000  Uiso   1.00
C265   C     0.10128   0.76302   0.75068   0.00000  Uiso   1.00
C266   C     0.07936   0.79801   0.72217   0.00000  Uiso   1.00
C267   C     1.01849   0.75366   0.71784   0.00000  Uiso   1.00
C268   C     0.03957   0.71728   0.74606   0.00000  Uiso   1.00
Ni269  Ni    0.93775   0.43393   0.76656   0.00000  Uiso   1.00
C270   C     1.00761   0.55559   0.82162   0.00000  Uiso   1.00
C271   C     0.00183   0.55134   0.77314   0.00000  Uiso   1.00
C272   C    -0.02409   0.51748   0.75682   0.00000  Uiso   1.00
C273   C     0.95727   0.49672   0.83480   0.00000  Uiso   1.00
C274   C     0.98325   0.52975   0.85267   0.00000  Uiso   1.00
H275   H     0.92757   0.26273   0.78241   0.00000  Uiso   1.00
H276   H     0.90749   0.32320   0.64292   0.00000  Uiso   1.00
H277   H     0.91310   0.40298   0.67571   0.00000  Uiso   1.00
H278   H     0.93259   0.34374   0.81201   0.00000  Uiso   1.00
N279   N     0.92224   0.37693   0.74535   0.00000  Uiso   1.00
N280   N     0.95585   0.48974   0.78775   0.00000  Uiso   1.00
H281   H     0.02052   0.57033   0.74824   0.00000  Uiso   1.00
H282   H    -0.02514   0.51037   0.71966   0.00000  Uiso   1.00
H283   H     0.94122   0.47382   0.85853   0.00000  Uiso   1.00
H284   H     0.98707   0.53210   0.89032   0.00000  Uiso   1.00
C285   C     0.91744   0.28657   0.71023   0.00000  Uiso   1.00
C286   C     0.91192   0.32681   0.68035   0.00000  Uiso   1.00
C287   C     0.91465   0.37204   0.69880   0.00000  Uiso   1.00
C288   C     0.92556   0.33880   0.77535   0.00000  Uiso   1.00
C289   C     0.92298   0.29298   0.75844   0.00000  Uiso   1.00
Ni290  Ni    0.87000   0.75573   0.99612   0.00000  Uiso   1.00
C291   C     0.73042   0.79982   0.04825   0.00000  Uiso   1.00
C292   C     0.74629   0.82045   0.00725   0.00000  Uiso   1.00
C293   C     0.78854   0.80623   0.99195   0.00000  Uiso   1.00
C294   C     0.79976   0.75203   0.05623   0.00000  Uiso   1.00
C295   C     0.75779   0.76511   0.07277   0.00000  Uiso   1.00
H296   H     0.98353   0.65251   0.91507   0.00000  Uiso   1.00
H297   H     0.02524   0.77644   0.98229   0.00000  Uiso   1.00
H298   H     0.94933   0.79874   0.00709   0.00000  Uiso   1.00
H299   H     0.90867   0.67747   0.94147   0.00000  Uiso   1.00
N300   N     0.92583   0.73890   0.97574   0.00000  Uiso   1.00
N301   N     0.81422   0.77271   0.01657   0.00000  Uiso   1.00
H302   H     0.72648   0.84743   0.98733   0.00000  Uiso   1.00
H303   H     0.80111   0.82204   0.96055   0.00000  Uiso   1.00
H304   H     0.82096   0.72555   0.07520   0.00000  Uiso   1.00
H305   H     0.74710   0.74858   0.10475   0.00000  Uiso   1.00
C306   C     1.01045   0.71233   0.94716   0.00000  Uiso   1.00
C307   C     1.00032   0.75405   0.97294   0.00000  Uiso   1.00
C308   C     0.95746   0.76676   0.98697   0.00000  Uiso   1.00
C309   C     0.93462   0.69870   0.95017   0.00000  Uiso   1.00
C310   C     0.97700   0.68465   0.93542   0.00000  Uiso   1.00
Ni311  Ni    0.52244   0.59540   0.33100   0.00000  Uiso   1.00
C312   C     0.57143   0.72308   0.25396   0.00000  Uiso   1.00
C313   C     0.60149   0.68732   0.27323   0.00000  Uiso   1.00
C314   C     0.58671   0.65073   0.30070   0.00000  Uiso   1.00
C315   C     0.51420   0.68634   0.29388   0.00000  Uiso   1.00
C316   C     0.52749   0.72337   0.26602   0.00000  Uiso   1.00
H317   H     0.52335   0.42542   0.38171   0.00000  Uiso   1.00
H318   H     0.40047   0.50238   0.34316   0.00000  Uiso   1.00
H319   H     0.43698   0.57496   0.33264   0.00000  Uiso   1.00
H320   H     0.55806   0.50043   0.36843   0.00000  Uiso   1.00
N321   N     0.49885   0.54107   0.35013   0.00000  Uiso   1.00
N322   N     0.54356   0.65021   0.30909   0.00000  Uiso   1.00
H323   H     0.63566   0.68582   0.26457   0.00000  Uiso   1.00
H324   H     0.60924   0.62117   0.31270   0.00000  Uiso   1.00
H325   H     0.48000   0.68456   0.30064   0.00000  Uiso   1.00
H326   H     0.50333   0.75013   0.25162   0.00000  Uiso   1.00
C327   C     0.45940   0.45792   0.36233   0.00000  Uiso   1.00
C328   C     0.43507   0.50080   0.34936   0.00000  Uiso   1.00
C329   C     0.45545   0.54209   0.34385   0.00000  Uiso   1.00
C330   C     0.52340   0.50037   0.36412   0.00000  Uiso   1.00
C331   C     0.50387   0.45795   0.37129   0.00000  Uiso   1.00
loop_
_geom_bond_atom_site_label_1
_geom_bond_atom_site_label_2
_geom_bond_distance
_geom_bond_site_symmetry_2
_ccdc_geom_bond_type
C0     O11     1.270   .     A
C0     O12     1.280   .     A
C0     C270    1.469   1_455 S
Sm1    O5      2.277   .     S
Sm1    O6      2.284   .     S
Sm1    O8      2.237   .     S
Sm1    O9      2.274   .     S
Sm1    O10     2.283   .     S
Sm1    O13     2.242   .     S
Sm2    O7      2.274   .     S
Sm2    O11     2.238   .     S
Sm2    O12     2.255   .     S
Sm2    O14     2.242   .     S
Sm2    O15     2.262   .     S
Sm2    O16     2.247   .     S
C3     O13     1.272   .     A
C3     O14     1.271   .     A
C3     C207    1.475   .     S
C4     O15     1.265   .     A
C4     O16     1.262   .     A
C4     C201    1.471   .     S
O5     C17     1.254   .     A
O6     C17     1.256   .     A
O7     C18     1.280   .     A
O8     C18     1.275   .     A
O9     C19     1.252   .     A
O10    C19     1.255   .     A
C17    C96     1.478   .     S
C18    C264    1.472   .     S
C19    C306    1.474   1_455 S
C20    O31     1.278   .     A
C20    O32     1.283   .     A
C20    C312    1.476   .     S
Sm21   O25     2.220   .     S
Sm21   O26     2.225   .     S
Sm21   O28     2.233   .     S
Sm21   O29     2.223   .     S
Sm21   O30     2.247   .     S
Sm21   O33     2.230   .     S
Sm22   O27     2.278   .     S
Sm22   O31     2.224   .     S
Sm22   O32     2.234   .     S
Sm22   O34     2.272   .     S
Sm22   O35     2.230   .     S
Sm22   O36     2.241   .     S
C23    O33     1.266   .     A
C23    O34     1.274   .     A
C23    C291    1.483   .     S
C24    O35     1.281   .     A
C24    O36     1.282   .     A
C24    C81     1.483   1_554 S
O25    C37     1.283   .     A
O26    C37     1.286   .     A
O27    C38     1.274   .     A
O28    C38     1.264   .     A
O29    C39     1.281   .     A
O30    C39     1.287   .     A
C37    C159    1.476   1_554 S
C38    C117    1.486   .     S
C39    C180    1.484   .     S
C40    O51     1.271   .     A
C40    O52     1.281   .     A
C40    C165    1.475   1_545 S
Sm41   O45     2.271   .     S
Sm41   O46     2.275   .     S
Sm41   O48     2.277   .     S
Sm41   O49     2.262   .     S
Sm41   O50     2.231   .     S
Sm41   O53     2.308   .     S
Sm42   O47     2.245   .     S
Sm42   O51     2.234   .     S
Sm42   O52     2.257   .     S
Sm42   O54     2.208   .     S
Sm42   O55     2.269   .     S
Sm42   O56     2.260   .     S
C43    O53     1.283   .     A
C43    O54     1.264   .     A
C43    C243    1.479   .     S
C44    O55     1.259   .     A
C44    O56     1.261   .     A
C44    C123    1.470   .     S
O45    C57     1.261   .     A
O46    C57     1.266   .     A
O47    C58     1.277   .     A
O48    C58     1.280   .     A
O49    C59     1.275   .     A
O50    C59     1.270   .     A
C57    C285    1.472   .     S
C58    C144    1.474   .     S
C59    C249    1.472   1_545 S
C60    O71     1.270   .     A
C60    O72     1.264   .     A
C60    C222    1.474   .     S
Sm61   O65     2.273   .     S
Sm61   O66     2.265   .     S
Sm61   O68     2.307   .     S
Sm61   O69     2.245   .     S
Sm61   O70     2.232   .     S
Sm61   O73     2.290   .     S
Sm62   O67     2.215   .     S
Sm62   O71     2.291   .     S
Sm62   O72     2.242   .     S
Sm62   O74     2.213   .     S
Sm62   O75     2.294   .     S
Sm62   O76     2.248   .     S
C63    O73     1.280   .     A
C63    O74     1.269   .     A
C63    C102    1.485   .     S
C64    O75     1.268   .     A
C64    O76     1.265   .     A
C64    C327    1.470   .     S
O65    C77     1.270   .     A
O66    C77     1.262   .     A
O67    C78     1.269   .     A
O68    C78     1.288   .     A
O69    C79     1.283   .     A
O70    C79     1.280   .     A
C77    C138    1.473   .     S
C78    C186    1.475   .     S
C79    C228    1.480   .     S
Ni80   N90     1.850   .     S
Ni80   N91     1.850   .     S
C81    C82     1.405   .     A
C81    C85     1.404   .     A
C81    C24     1.483   1_556 S
C82    C83     1.402   .     A
C82    H92     1.082   1_556 S
C83    N91     1.361   .     A
C83    H93     1.082   .     S
C84    C85     1.398   .     A
C84    N91     1.360   .     A
C84    H94     1.081   .     S
C85    H95     1.083   .     S
H86    C100    1.083   .     S
H87    C97     1.082   .     S
H88    C98     1.081   .     S
H89    C99     1.080   .     S
N90    C98     1.361   .     A
N90    C99     1.360   .     A
H92    C82     1.082   1_554 S
C96    C97     1.403   .     A
C96    C100    1.404   .     A
C97    C98     1.399   .     A
C99    C100    1.399   .     A
Ni101  N111    1.849   .     S
Ni101  N112    1.850   .     S
C102   C103    1.404   .     A
C102   C106    1.407   .     A
C103   C104    1.404   .     A
C103   H113    1.082   .     S
C104   N112    1.363   .     A
C104   H114    1.081   .     S
C105   C106    1.394   .     A
C105   N112    1.357   .     A
C105   H115    1.081   .     S
C106   H116    1.083   .     S
H107   C121    1.083   .     S
H108   C118    1.082   .     S
H109   C119    1.082   .     S
H110   C120    1.082   .     S
N111   C119    1.363   .     A
N111   C120    1.357   .     A
C117   C118    1.404   .     A
C117   C121    1.407   1_565 A
C118   C119    1.404   1_565 A
C119   C118    1.404   1_545 A
C120   C121    1.395   .     A
C121   C117    1.407   1_545 A
Ni122  N132    1.841   .     S
Ni122  N133    1.841   .     S
C123   C124    1.405   .     A
C123   C127    1.401   .     A
C124   C125    1.399   .     A
C124   H134    1.084   .     S
C125   N133    1.360   .     A
C125   H135    1.082   .     S
C126   C127    1.394   .     A
C126   N133    1.359   .     A
C126   H136    1.081   .     S
C127   H137    1.084   .     S
H128   C142    1.085   .     S
H129   C139    1.081   .     S
H130   C140    1.082   .     S
H131   C141    1.079   .     S
N132   C140    1.358   .     A
N132   C141    1.359   .     A
C138   C139    1.401   .     A
C138   C142    1.403   .     A
C139   C140    1.397   .     A
C141   C142    1.399   .     A
Ni143  N153    1.839   .     S
Ni143  N154    1.839   1_565 S
C144   C145    1.404   .     A
C144   C148    1.404   .     A
C145   C146    1.394   .     A
C145   H155    1.083   .     S
C146   N154    1.358   .     A
C146   H156    1.082   .     S
C147   C148    1.400   .     A
C147   N154    1.361   .     A
C147   H157    1.082   .     S
C148   H158    1.084   .     S
H149   C163    1.083   .     S
H150   C160    1.083   .     S
H151   C161    1.082   .     S
H152   C162    1.082   .     S
N153   C161    1.360   .     A
N153   C162    1.359   .     A
N154   Ni143   1.839   1_545 S
C159   C160    1.405   .     A
C159   C163    1.402   .     A
C159   C37     1.476   1_556 S
C160   C161    1.398   .     A
C162   C163    1.396   .     A
Ni164  N174    1.848   .     S
Ni164  N175    1.847   .     S
C165   C166    1.404   .     A
C165   C169    1.403   .     A
C165   C40     1.475   1_565 S
C166   C167    1.401   .     A
C166   H176    1.083   .     S
C167   N175    1.361   .     A
C167   H177    1.082   .     S
C168   C169    1.396   .     A
C168   N175    1.359   .     A
C168   H178    1.082   .     S
C169   H179    1.083   1_565 S
H170   C184    1.082   .     S
H171   C181    1.082   .     S
H172   C182    1.081   .     S
H173   C183    1.082   .     S
N174   C182    1.362   .     A
N174   C183    1.358   .     A
H179   C169    1.083   1_545 S
C180   C181    1.404   .     A
C180   C184    1.405   .     A
C181   C182    1.403   .     A
C183   C184    1.397   .     A
Ni185  N195    1.834   .     S
Ni185  N196    1.834   .     S
C186   C187    1.402   .     A
C186   C190    1.406   .     A
C187   C188    1.398   .     A
C187   H197    1.082   .     S
C188   N196    1.360   .     A
C188   H198    1.081   .     S
C189   C190    1.391   .     A
C189   N196    1.356   .     A
C189   H199    1.082   .     S
C190   H200    1.082   .     S
H191   C205    1.084   .     S
H192   C202    1.082   .     S
H193   C203    1.082   .     S
H194   C204    1.081   .     S
N195   C203    1.356   .     A
N195   C204    1.361   .     A
C201   C202    1.402   .     A
C201   C205    1.403   .     A
C202   C203    1.392   .     A
C204   C205    1.398   .     A
Ni206  N216    1.837   .     S
Ni206  N217    1.837   .     S
C207   C208    1.405   .     A
C207   C211    1.403   .     A
C208   H218    1.084   .     S
C208   C209    1.396   1_556 A
C209   N217    1.359   .     A
C209   H219    1.081   .     S
C209   C208    1.396   1_554 A
C210   N217    1.359   .     A
C210   H220    1.082   .     S
C210   C211    1.395   1_554 A
C211   H221    1.083   .     S
C211   C210    1.395   1_556 A
H212   C226    1.083   .     S
H213   C223    1.082   .     S
H214   C224    1.082   .     S
H215   C225    1.082   .     S
N216   C224    1.363   .     A
N216   C225    1.354   .     A
C222   C223    1.403   .     A
C222   C226    1.404   .     A
C223   C224    1.405   .     A
C225   C226    1.387   .     A
Ni227  N237    1.843   .     S
Ni227  N238    1.844   .     S
C228   C229    1.404   .     A
C228   C232    1.404   .     A
C229   C230    1.400   .     A
C229   H239    1.083   .     S
C230   N238    1.360   .     A
C230   H240    1.081   .     S
C231   C232    1.397   .     A
C231   N238    1.359   .     A
C231   H241    1.082   .     S
C232   H242    1.082   .     S
H233   C247    1.083   .     S
H234   C244    1.084   .     S
H235   C245    1.082   .     S
H236   C246    1.082   .     S
N237   C245    1.361   .     A
N237   C246    1.359   .     A
C243   C244    1.405   .     A
C243   C247    1.404   .     A
C244   C245    1.399   1_655 A
C245   C244    1.399   1_455 A
C246   C247    1.396   1_455 A
C247   C246    1.396   1_655 A
Ni248  N259    1.838   .     S
Ni248  N258    1.838   1_655 S
C249   C250    1.402   .     A
C249   C253    1.403   .     A
C249   C59     1.472   1_565 S
C250   C251    1.392   .     A
C250   H260    1.083   .     S
C251   N259    1.358   .     A
C251   H261    1.082   .     S
C252   C253    1.401   .     A
C252   N259    1.361   .     A
C252   H262    1.082   1_655 S
C253   H263    1.083   .     S
H254   C268    1.083   1_655 S
H255   C265    1.083   .     S
H256   C266    1.082   .     S
H257   C267    1.083   .     S
N258   C266    1.358   .     A
N258   Ni248   1.838   1_455 S
N258   C267    1.361   1_455 A
H262   C252    1.082   1_455 S
C264   C265    1.401   .     A
C264   C268    1.405   .     A
C265   C266    1.391   .     A
C267   N258    1.361   1_655 A
C267   C268    1.401   1_655 A
C268   H254    1.083   1_455 S
C268   C267    1.401   1_455 A
Ni269  N279    1.835   .     S
Ni269  N280    1.835   .     S
C270   C274    1.403   .     A
C270   C271    1.401   1_655 A
C270   C0      1.469   1_655 S
C271   C272    1.395   .     A
C271   H281    1.083   .     S
C271   C270    1.401   1_455 A
C272   H282    1.081   .     S
C272   N280    1.359   1_455 A
C273   C274    1.395   .     A
C273   N280    1.358   .     A
C273   H283    1.082   .     S
C274   H284    1.083   .     S
H275   C289    1.082   .     S
H276   C286    1.083   .     S
H277   C287    1.081   .     S
H278   C288    1.081   .     S
N279   C287    1.359   .     A
N279   C288    1.358   .     A
N280   C272    1.359   1_655 A
C285   C286    1.404   .     A
C285   C289    1.401   .     A
C286   C287    1.397   .     A
C288   C289    1.395   .     A
Ni290  N300    1.839   .     S
Ni290  N301    1.839   1_556 S
C291   C292    1.406   .     A
C291   C295    1.406   .     A
C292   C293    1.398   1_554 A
C292   H302    1.082   1_554 S
C293   H303    1.082   .     S
C293   C292    1.398   1_556 A
C293   N301    1.359   1_556 A
C294   C295    1.396   .     A
C294   N301    1.358   .     A
C294   H304    1.081   .     S
C295   H305    1.083   .     S
H296   C310    1.083   .     S
H297   C307    1.083   1_455 S
H298   C308    1.082   1_554 S
H299   C309    1.082   .     S
N300   C308    1.360   .     A
N300   C309    1.359   .     A
N301   Ni290   1.839   1_554 S
N301   C293    1.359   1_554 A
H302   C292    1.082   1_556 S
C306   C307    1.402   .     A
C306   C310    1.404   .     A
C306   C19     1.474   1_655 S
C307   C308    1.397   .     A
C307   H297    1.083   1_655 S
C308   H298    1.082   1_556 S
C309   C310    1.396   .     A
Ni311  N321    1.838   .     S
Ni311  N322    1.838   .     S
C312   C313    1.406   .     A
C312   C316    1.401   .     A
C313   C314    1.398   .     A
C313   H323    1.082   .     S
C314   N322    1.358   .     A
C314   H324    1.082   .     S
C315   C316    1.396   .     A
C315   N322    1.360   .     A
C315   H325    1.082   .     S
C316   H326    1.083   .     S
H317   C331    1.082   .     S
H318   C328    1.083   .     S
H319   C329    1.082   .     S
H320   C330    1.082   .     S
N321   C329    1.355   .     A
N321   C330    1.364   .     A
C327   C328    1.402   .     A
C327   C331    1.402   .     A
C328   C329    1.386   .     A
C330   C331    1.406   .     A
