data_lcy+N106+E9
_audit_creation_date              2025-01-21
_audit_creation_method            'Materials Studio'
_symmetry_space_group_name_H-M    'P1'
_symmetry_Int_Tables_number       1
_symmetry_cell_setting            triclinic
loop_
_symmetry_equiv_pos_as_xyz
  x,y,z
_cell_length_a                    32.1485
_cell_length_b                    32.2907
_cell_length_c                    33.0940
_cell_angle_alpha                 99.1076
_cell_angle_beta                  97.5145
_cell_angle_gamma                 90.5706
loop_
_atom_site_label
_atom_site_type_symbol
_atom_site_fract_x
_atom_site_fract_y
_atom_site_fract_z
_atom_site_U_iso_or_equiv
_atom_site_adp_type
_atom_site_occupancy
Y0     Y     0.12035   0.64252   0.81853   0.00000  Uiso   1.00
Y1     Y     0.15826   0.59206   0.88860   0.00000  Uiso   1.00
O2     O     0.15828   0.59496   0.78427   0.00000  Uiso   1.00
O3     O     0.11868   0.57325   0.82614   0.00000  Uiso   1.00
C4     C     0.19774   0.56136   0.95426   0.00000  Uiso   1.00
O5     O     0.09712   0.55433   0.87911   0.00000  Uiso   1.00
O6     O     0.08319   0.69947   0.81202   0.00000  Uiso   1.00
O7     O     0.09327   0.66125   0.75689   0.00000  Uiso   1.00
O8     O     0.20227   0.57991   0.83878   0.00000  Uiso   1.00
O9     O     0.16237   0.65999   0.87977   0.00000  Uiso   1.00
O10    O     0.18309   0.67609   0.82539   0.00000  Uiso   1.00
O11    O     0.06983   0.64080   0.85873   0.00000  Uiso   1.00
C12    C     0.19214   0.57922   0.79961   0.00000  Uiso   1.00
O13    O     0.10801   0.63083   0.91787   0.00000  Uiso   1.00
C14    C     0.08836   0.55316   0.84228   0.00000  Uiso   1.00
O15    O     0.18045   0.53855   0.92184   0.00000  Uiso   1.00
O16    O     0.19756   0.59983   0.95139   0.00000  Uiso   1.00
C17    C     0.07762   0.69448   0.77332   0.00000  Uiso   1.00
C18    C     0.07378   0.64082   0.89759   0.00000  Uiso   1.00
C19    C     0.19421   0.67512   0.86145   0.00000  Uiso   1.00
Y20    Y     0.66537   0.83327   0.10455   0.00000  Uiso   1.00
Y21    Y     0.60488   0.90419   0.13758   0.00000  Uiso   1.00
O22    O     0.62061   0.79768   0.13341   0.00000  Uiso   1.00
O23    O     0.59437   0.84092   0.09666   0.00000  Uiso   1.00
C24    C     0.56879   0.97044   0.17800   0.00000  Uiso   1.00
O25    O     0.56783   0.89446   0.07352   0.00000  Uiso   1.00
O26    O     0.72340   0.79526   0.10737   0.00000  Uiso   1.00
O27    O     0.68435   0.78780   0.05060   0.00000  Uiso   1.00
O28    O     0.59855   0.85177   0.17658   0.00000  Uiso   1.00
O29    O     0.67482   0.89533   0.14832   0.00000  Uiso   1.00
O30    O     0.69711   0.83972   0.17004   0.00000  Uiso   1.00
O31    O     0.67126   0.88169   0.06391   0.00000  Uiso   1.00
C32    C     0.60341   0.81209   0.16545   0.00000  Uiso   1.00
O33    O     0.63824   0.93675   0.09449   0.00000  Uiso   1.00
C34    C     0.57102   0.85684   0.06516   0.00000  Uiso   1.00
O35    O     0.54823   0.94045   0.15460   0.00000  Uiso   1.00
O36    O     0.60771   0.96460   0.18294   0.00000  Uiso   1.00
C37    C     0.71828   0.77806   0.07023   0.00000  Uiso   1.00
C38    C     0.65984   0.91969   0.06673   0.00000  Uiso   1.00
C39    C     0.69168   0.87644   0.18109   0.00000  Uiso   1.00
Y40    Y     0.82218   0.10780   0.67247   0.00000  Uiso   1.00
Y41    Y     0.88123   0.13574   0.61113   0.00000  Uiso   1.00
O42    O     0.77841   0.14721   0.63871   0.00000  Uiso   1.00
O43    O     0.81903   0.09937   0.60159   0.00000  Uiso   1.00
C44    C     0.93957   0.17516   0.57790   0.00000  Uiso   1.00
O45    O     0.87014   0.07224   0.57169   0.00000  Uiso   1.00
O46    O     0.82215   0.09322   0.73613   0.00000  Uiso   1.00
O47    O     0.76722   0.07634   0.69454   0.00000  Uiso   1.00
O48    O     0.82589   0.18058   0.60932   0.00000  Uiso   1.00
O49    O     0.88317   0.14534   0.67995   0.00000  Uiso   1.00
O50    O     0.83152   0.17458   0.70604   0.00000  Uiso   1.00
O51    O     0.86732   0.05614   0.66399   0.00000  Uiso   1.00
C52    C     0.78871   0.17633   0.61943   0.00000  Uiso   1.00
O53    O     0.91996   0.08664   0.63977   0.00000  Uiso   1.00
C54    C     0.83387   0.06628   0.57608   0.00000  Uiso   1.00
O55    O     0.90953   0.15303   0.55642   0.00000  Uiso   1.00
O56    O     0.93808   0.17834   0.61607   0.00000  Uiso   1.00
C57    C     0.78566   0.07729   0.73093   0.00000  Uiso   1.00
C58    C     0.90485   0.05675   0.65533   0.00000  Uiso   1.00
C59    C     0.86661   0.18122   0.69889   0.00000  Uiso   1.00
Y60    Y     0.41560   0.43234   0.37752   0.00000  Uiso   1.00
Y61    Y     0.34743   0.36985   0.39695   0.00000  Uiso   1.00
O62    O     0.45654   0.39112   0.41219   0.00000  Uiso   1.00
O63    O     0.40598   0.36096   0.36582   0.00000  Uiso   1.00
C64    C     0.28946   0.33054   0.43102   0.00000  Uiso   1.00
O65    O     0.34856   0.33170   0.33353   0.00000  Uiso   1.00
O66    O     0.44989   0.49442   0.38532   0.00000  Uiso   1.00
O67    O     0.45572   0.45150   0.33171   0.00000  Uiso   1.00
O68    O     0.40705   0.36194   0.44233   0.00000  Uiso   1.00
O69    O     0.35759   0.44015   0.40961   0.00000  Uiso   1.00
O70    O     0.41652   0.46318   0.44388   0.00000  Uiso   1.00
O71    O     0.36120   0.43549   0.32852   0.00000  Uiso   1.00
C72    C     0.44588   0.37040   0.43941   0.00000  Uiso   1.00
O73    O     0.30811   0.40726   0.35411   0.00000  Uiso   1.00
C74    C     0.38544   0.33653   0.33099   0.00000  Uiso   1.00
O75    O     0.29927   0.31800   0.39561   0.00000  Uiso   1.00
O76    O     0.31064   0.36265   0.44947   0.00000  Uiso   1.00
C77    C     0.46436   0.48798   0.35150   0.00000  Uiso   1.00
C78    C     0.32223   0.42681   0.32759   0.00000  Uiso   1.00
C79    C     0.37992   0.45771   0.44682   0.00000  Uiso   1.00
C80    C     0.47380   0.78917  -0.01276   0.00000  Uiso   1.00
N81    N     0.48413   0.82866  -0.01808   0.00000  Uiso   1.00
N82    N     0.51748   0.84940   0.00456   0.00000  Uiso   1.00
C83    C     0.54226   0.83106   0.03271   0.00000  Uiso   1.00
N84    N     0.53273   0.79106   0.03696   0.00000  Uiso   1.00
N85    N     0.49910   0.77049   0.01470   0.00000  Uiso   1.00
C86    C     0.43378   0.76892  -0.03323   0.00000  Uiso   1.00
N87    N     0.41703   0.73589  -0.01930   0.00000  Uiso   1.00
N88    N     0.37910   0.71982   0.96423   0.00000  Uiso   1.00
C89    C     0.35660   0.73611   0.93311   0.00000  Uiso   1.00
N90    N     0.37355   0.76885   0.91899   0.00000  Uiso   1.00
N91    N     0.41124   0.78514   0.93569   0.00000  Uiso   1.00
C92    C     0.31444   0.71943   0.91510   0.00000  Uiso   1.00
N93    N     0.29697   0.72945   0.87851   0.00000  Uiso   1.00
N94    N     0.25856   0.71535   0.86196   0.00000  Uiso   1.00
C95    C     0.23574   0.69125   0.88161   0.00000  Uiso   1.00
N96    N     0.25298   0.68122   0.91837   0.00000  Uiso   1.00
N97    N     0.29178   0.69499   0.93478   0.00000  Uiso   1.00
C98    C     0.44550   0.24238   0.26252   0.00000  Uiso   1.00
N99    N     0.40327   0.24583   0.25488   0.00000  Uiso   1.00
N100   N     0.38432   0.27821   0.27413   0.00000  Uiso   1.00
C101   C     0.40686   0.30862   0.30149   0.00000  Uiso   1.00
N102   N     0.44926   0.30591   0.30810   0.00000  Uiso   1.00
N103   N     0.46825   0.27347   0.28888   0.00000  Uiso   1.00
C104   C     0.46516   0.20317   0.24696   0.00000  Uiso   1.00
N105   N     0.44124   0.17059   0.22431   0.00000  Uiso   1.00
N106   N     0.45794   0.13348   0.21383   0.00000  Uiso   1.00
C107   C     0.49913   0.12741   0.22587   0.00000  Uiso   1.00
N108   N     0.52322   0.16012   0.24810   0.00000  Uiso   1.00
N109   N     0.50651   0.19727   0.25856   0.00000  Uiso   1.00
C110   C     0.51698   0.08591   0.21556   0.00000  Uiso   1.00
N111   N     0.55827   0.07955   0.22697   0.00000  Uiso   1.00
N112   N     0.57449   1.04217   0.21642   0.00000  Uiso   1.00
C113   C     0.54994   1.00967   0.19447   0.00000  Uiso   1.00
N114   N     0.50856   0.01586   0.18362   0.00000  Uiso   1.00
N115   N     0.49236   0.05322   0.19412   0.00000  Uiso   1.00
C116   C     0.68992   0.25126   0.58369   0.00000  Uiso   1.00
N117   N     0.72803   0.25605   0.57099   0.00000  Uiso   1.00
N118   N     0.76024   0.23312   0.58307   0.00000  Uiso   1.00
C119   C     0.75528   0.20456   0.60816   0.00000  Uiso   1.00
N120   N     0.71739   0.20037   0.62129   0.00000  Uiso   1.00
N121   N     0.68532   0.22323   0.60930   0.00000  Uiso   1.00
C122   C     0.65328   0.27316   0.56740   0.00000  Uiso   1.00
N123   N     0.61457   0.26507   0.57727   0.00000  Uiso   1.00
N124   N     0.58066   0.28221   0.55980   0.00000  Uiso   1.00
C125   C     0.58437   0.30807   0.53184   0.00000  Uiso   1.00
N126   N     0.62313   0.31650   0.52242   0.00000  Uiso   1.00
N127   N     0.65695   0.29933   0.53979   0.00000  Uiso   1.00
C128   C     0.54746   0.32521   0.51005   0.00000  Uiso   1.00
N129   N     0.55311   0.34957   0.48140   0.00000  Uiso   1.00
N130   N     0.52039   0.36410   0.45974   0.00000  Uiso   1.00
C131   C     0.48062   0.35487   0.46568   0.00000  Uiso   1.00
N132   N     0.47466   0.33053   0.49449   0.00000  Uiso   1.00
N133   N     0.50763   0.31592   0.51636   0.00000  Uiso   1.00
C134   C     0.73957   0.03681   0.83093   0.00000  Uiso   1.00
N135   N     0.71241   0.04194   0.79705   0.00000  Uiso   1.00
N136   N     0.72662   0.05419   0.76443   0.00000  Uiso   1.00
C137   C     0.76838   0.06183   0.76485   0.00000  Uiso   1.00
N138   N     0.79516   0.05686   0.79877   0.00000  Uiso   1.00
N139   N     0.78111   0.04433   0.83097   0.00000  Uiso   1.00
C140   C     0.72570   0.02235   0.86710   0.00000  Uiso   1.00
N141   N     0.75463   1.00750   0.89440   0.00000  Uiso   1.00
N142   N     0.74354   0.99406   0.92750   0.00000  Uiso   1.00
C143   C     0.70312   0.99550   0.93509   0.00000  Uiso   1.00
N144   N     0.67396   0.01070   0.90802   0.00000  Uiso   1.00
N145   N     0.68505   0.02382   0.87447   0.00000  Uiso   1.00
C146   C     0.69182   0.97827   0.97089   0.00000  Uiso   1.00
N147   N     0.65601   0.98854   0.98744   0.00000  Uiso   1.00
N148   N     0.64642   0.97148   0.01944   0.00000  Uiso   1.00
C149   C     0.67223   0.94347   0.03573   0.00000  Uiso   1.00
N150   N     0.70787   0.93339   0.01911   0.00000  Uiso   1.00
N151   N     0.71767   0.95076   0.98765   0.00000  Uiso   1.00
C152   C     0.76856  -0.00915   0.47485   0.00000  Uiso   1.00
N153   N     0.80627  -0.02090   0.49223   0.00000  Uiso   1.00
N154   N     0.82555   0.00094   0.52730   0.00000  Uiso   1.00
C155   C     0.80747   0.03487   0.54684   0.00000  Uiso   1.00
N156   N     0.76886   0.04550   0.53046   0.00000  Uiso   1.00
N157   N     0.74974   0.02392   0.49507   0.00000  Uiso   1.00
C158   C     0.75199  -0.02807   0.43232   0.00000  Uiso   1.00
N159   N     0.72338  -0.00797   0.40897   0.00000  Uiso   1.00
N160   N     0.71252  -0.02244   0.36885   0.00000  Uiso   1.00
C161   C     0.73000   0.94250   0.35067   0.00000  Uiso   1.00
N162   N     0.75809   0.92215   0.37419   0.00000  Uiso   1.00
N163   N     0.76909   0.93671   0.41413   0.00000  Uiso   1.00
C164   C     0.71982   0.92666   0.30623   0.00000  Uiso   1.00
N165   N     0.73421   0.88900   0.29060   0.00000  Uiso   1.00
N166   N     0.72565   0.87387   0.25058   0.00000  Uiso   1.00
C167   C     0.70281   0.89596   0.22438   0.00000  Uiso   1.00
N168   N     0.68839   0.93382   0.23979   0.00000  Uiso   1.00
N169   N     0.69681   0.94895   0.28010   0.00000  Uiso   1.00
C170   C     0.33144   0.48954   0.55816   0.00000  Uiso   1.00
N171   N     0.37193   0.49937   0.55534   0.00000  Uiso   1.00
N172   N     0.38719   0.48945   0.51964   0.00000  Uiso   1.00
C173   C     0.36247   0.46956   0.48551   0.00000  Uiso   1.00
N174   N     0.32191   0.46000   0.48822   0.00000  Uiso   1.00
N175   N     0.30670   0.46981   0.52395   0.00000  Uiso   1.00
C176   C     0.31442   0.49936   0.59741   0.00000  Uiso   1.00
N177   N     0.27496   0.48619   0.59999   0.00000  Uiso   1.00
N178   N     0.25866   0.49517   0.63507   0.00000  Uiso   1.00
C179   C     0.28113   0.51755   0.66911   0.00000  Uiso   1.00
N180   N     0.32083   0.53072   0.66677   0.00000  Uiso   1.00
N181   N     0.33726   0.52162   0.63151   0.00000  Uiso   1.00
C182   C     0.26044   0.52992   0.70587   0.00000  Uiso   1.00
N183   N     0.28080   0.55133   0.74170   0.00000  Uiso   1.00
N184   N     0.25982   0.56527   0.77314   0.00000  Uiso   1.00
C185   C     0.21774   0.55824   0.76976   0.00000  Uiso   1.00
N186   N     0.19785   0.53635   0.73427   0.00000  Uiso   1.00
N187   N     0.21871   0.52230   0.70318   0.00000  Uiso   1.00
C188   C     0.22847   0.51828   0.06666   0.00000  Uiso   1.00
N189   N     0.21423   0.49097   0.03186   0.00000  Uiso   1.00
N190   N     0.20620   0.50433   0.99556   0.00000  Uiso   1.00
C191   C     0.21245   0.54539   0.99267   0.00000  Uiso   1.00
N192   N     0.22730   0.57250   1.02733   0.00000  Uiso   1.00
N193   N     0.23532   0.55916   0.06357   0.00000  Uiso   1.00
C194   C     0.23540   0.50450   0.10732   0.00000  Uiso   1.00
N195   N     0.24767   0.53285   0.14181   0.00000  Uiso   1.00
N196   N     0.25447   0.52081   0.17872   0.00000  Uiso   1.00
C197   C     0.24897   0.47999   0.18271   0.00000  Uiso   1.00
N198   N     0.23630   0.45159   0.14826   0.00000  Uiso   1.00
N199   N     0.22949   0.46366   0.11125   0.00000  Uiso   1.00
C200   C     0.26102   0.46673   0.22310   0.00000  Uiso   1.00
N201   N     0.25645   0.42608   0.22838   0.00000  Uiso   1.00
N202   N     0.27277   0.41364   0.26356   0.00000  Uiso   1.00
C203   C     0.29409   0.44144   0.29467   0.00000  Uiso   1.00
N204   N     0.29787   0.48208   0.28956   0.00000  Uiso   1.00
N205   N     0.28129   0.49457   0.25469   0.00000  Uiso   1.00
C206   C     0.18840   0.27931   0.47623   0.00000  Uiso   1.00
N207   N     0.21428   0.30936   0.50071   0.00000  Uiso   1.00
N208   N     0.24705   0.32512   0.48671   0.00000  Uiso   1.00
C209   C     0.25543   0.31114   0.44779   0.00000  Uiso   1.00
N210   N     0.22988   0.28078   0.42349   0.00000  Uiso   1.00
N211   N     0.19698   0.26521   0.43740   0.00000  Uiso   1.00
C212   C     0.15103   0.26352   0.49100   0.00000  Uiso   1.00
N213   N     0.12255   0.23704   0.46513   0.00000  Uiso   1.00
N214   N     0.08808   0.22377   0.47820   0.00000  Uiso   1.00
C215   C     0.08064   0.23644   0.51769   0.00000  Uiso   1.00
N216   N     0.10927   0.26267   0.54361   0.00000  Uiso   1.00
N217   N     0.14364   0.27603   0.53051   0.00000  Uiso   1.00
C218   C     0.04277   0.22184   0.53248   0.00000  Uiso   1.00
N219   N     0.03754   0.23220   0.57284   0.00000  Uiso   1.00
N220   N     1.00409   0.21814   0.58690   0.00000  Uiso   1.00
C221   C     0.97418   0.19345   0.56110   0.00000  Uiso   1.00
N222   N     0.97909   0.18331   0.52059   0.00000  Uiso   1.00
N223   N     0.01272   0.19724   0.50653   0.00000  Uiso   1.00
C224   C     0.96775   0.94993   0.68204   0.00000  Uiso   1.00
N225   N     0.93799   0.96703   0.70436   0.00000  Uiso   1.00
N226   N     0.91945   0.00178   0.69618   0.00000  Uiso   1.00
C227   C     0.93017   0.02141   0.66565   0.00000  Uiso   1.00
N228   N     0.96055   1.00490   0.64339   0.00000  Uiso   1.00
N229   N     0.97904   0.96957   0.65143   0.00000  Uiso   1.00
C230   C     0.98482   0.90985   0.69104   0.00000  Uiso   1.00
N231   N     1.01143   0.88729   0.66794   0.00000  Uiso   1.00
N232   N     0.02462   0.85020   0.67693   0.00000  Uiso   1.00
C233   C     0.01139   0.83455   0.70911   0.00000  Uiso   1.00
N234   N    -0.01501   0.85731   0.73188   0.00000  Uiso   1.00
N235   N     0.97188   0.89399   0.72295   0.00000  Uiso   1.00
C236   C     0.02635   0.79515   0.72196   0.00000  Uiso   1.00
N237   N     0.01580   0.78564   0.75777   0.00000  Uiso   1.00
N238   N     0.03068   0.75209   0.77250   0.00000  Uiso   1.00
C239   C     0.05628   0.72613   0.75179   0.00000  Uiso   1.00
N240   N     0.06642   0.73487   0.71532   0.00000  Uiso   1.00
N241   N     0.05163   0.76891   0.70058   0.00000  Uiso   1.00
C242   C     0.00337   0.46003   0.77940   0.00000  Uiso   1.00
N243   N     0.03422   0.47428   0.76025   0.00000  Uiso   1.00
N244   N     0.05952   0.50647   0.77921   0.00000  Uiso   1.00
C245   C     0.05498   0.52531   0.81800   0.00000  Uiso   1.00
N246   N     0.02359   0.51166   0.83672   0.00000  Uiso   1.00
N247   N    -0.00197   0.47986   0.81762   0.00000  Uiso   1.00
C248   C     0.97955   0.42084   0.76185   0.00000  Uiso   1.00
N249   N     0.94631   0.40947   0.77947   0.00000  Uiso   1.00
N250   N     0.92748   0.37185   0.76724   0.00000  Uiso   1.00
C251   C     0.94153   0.34392   0.73730   0.00000  Uiso   1.00
N252   N     0.97450   0.35539   0.71926   0.00000  Uiso   1.00
N253   N     0.99316   0.39322   0.73130   0.00000  Uiso   1.00
C254   C     0.92230   0.30151   0.72635   0.00000  Uiso   1.00
N255   N     0.94118   0.26995   0.70390   0.00000  Uiso   1.00
N256   N     0.92397   0.23124   0.69558   0.00000  Uiso   1.00
C257   C     0.88736   0.22284   0.70943   0.00000  Uiso   1.00
N258   N     0.86851   0.25444   0.73163   0.00000  Uiso   1.00
N259   N     0.88578   0.29296   0.74016   0.00000  Uiso   1.00
C260   C     0.81655   0.71476   0.01975   0.00000  Uiso   1.00
N261   N     0.81754   0.72487   0.06123   0.00000  Uiso   1.00
N262   N     0.78515   0.74327   0.07714   0.00000  Uiso   1.00
C263   C     0.75046   0.75207   0.05226   0.00000  Uiso   1.00
N264   N     0.74898   0.74113   1.01076   0.00000  Uiso   1.00
N265   N     0.78149   0.72278   0.99480   0.00000  Uiso   1.00
C266   C     0.85427   0.69927   1.00227   0.00000  Uiso   1.00
N267   N     0.85477   0.69285   0.96084   0.00000  Uiso   1.00
N268   N     0.89001   0.68233   0.94517   0.00000  Uiso   1.00
C269   C     0.92608   0.67788   0.97027   0.00000  Uiso   1.00
N270   N     0.92550   0.68376   0.01173   0.00000  Uiso   1.00
N271   N     0.89023   0.69439   0.02742   0.00000  Uiso   1.00
C272   C     0.96509   0.66831   0.95240   0.00000  Uiso   1.00
N273   N     0.00152   0.66185   0.97623   0.00000  Uiso   1.00
N274   N     0.03661   0.65336   0.95927   0.00000  Uiso   1.00
C275   C     0.03642   0.65139   0.91794   0.00000  Uiso   1.00
N276   N     0.00007   0.65812   0.89437   0.00000  Uiso   1.00
N277   N     0.96513   0.66641   0.91121   0.00000  Uiso   1.00
C278   C     0.56545   0.71932   0.22867   0.00000  Uiso   1.00
N279   N     0.58109   0.70956   0.19246   0.00000  Uiso   1.00
N280   N     0.59253   0.73955   0.17269   0.00000  Uiso   1.00
C281   C     0.58875   0.78059   0.18816   0.00000  Uiso   1.00
N282   N     0.57295   0.79070   0.22446   0.00000  Uiso   1.00
N283   N     0.56142   0.76045   0.24441   0.00000  Uiso   1.00
C284   C     0.55333   0.68512   0.24946   0.00000  Uiso   1.00
N285   N     0.53968   0.69260   0.28698   0.00000  Uiso   1.00
N286   N     0.52875   0.66071   0.30496   0.00000  Uiso   1.00
C287   C     0.53109   0.62040   0.28603   0.00000  Uiso   1.00
N288   N     0.54480   0.61305   0.24864   0.00000  Uiso   1.00
N289   N     0.55585   0.64481   0.23080   0.00000  Uiso   1.00
C290   C     0.51718   0.58525   0.30448   0.00000  Uiso   1.00
N291   N     0.51390   0.54577   0.28260   0.00000  Uiso   1.00
N292   N     0.49846   0.51415   0.29809   0.00000  Uiso   1.00
C293   C     0.48618   0.52093   0.33619   0.00000  Uiso   1.00
N294   N     0.49014   0.56025   0.35833   0.00000  Uiso   1.00
N295   N     0.50536   0.59189   0.34276   0.00000  Uiso   1.00
loop_
_geom_bond_atom_site_label_1
_geom_bond_atom_site_label_2
_geom_bond_distance
_geom_bond_site_symmetry_2
_ccdc_geom_bond_type
Y0     O2      2.231   .     S
Y0     O3      2.291   .     S
Y0     O6      2.226   .     S
Y0     O7      2.285   .     S
Y0     O9      2.271   .     S
Y0     O10     2.248   .     S
Y0     O11     2.235   .     S
Y1     O3      2.271   .     S
Y1     O5      2.262   .     S
Y1     O8      2.300   .     S
Y1     O9      2.263   .     S
Y1     O13     2.276   .     S
Y1     O15     2.264   .     S
Y1     O16     2.263   .     S
O2     C12     1.284   .     A
O3     C14     1.375   .     S
C4     O15     1.260   .     A
C4     O16     1.261   .     A
C4     C191    1.470   .     S
O5     C14     1.209   .     D
O6     C17     1.254   .     A
O7     C17     1.264   .     A
O8     C12     1.291   .     A
O9     C19     1.378   .     S
O10    C19     1.205   .     D
O11    C18     1.276   .     A
C12    C185    1.457   .     S
O13    C18     1.284   .     A
C14    C245    1.460   .     S
C17    C239    1.463   .     S
C18    C275    1.469   .     S
C19    C95     1.464   .     S
Y20    O22     2.231   .     S
Y20    O23     2.283   .     S
Y20    O26     2.243   .     S
Y20    O27     2.278   .     S
Y20    O29     2.272   .     S
Y20    O30     2.249   .     S
Y20    O31     2.240   .     S
Y21    O23     2.261   .     S
Y21    O25     2.265   .     S
Y21    O28     2.308   .     S
Y21    O29     2.258   .     S
Y21    O33     2.267   .     S
Y21    O35     2.260   .     S
Y21    O36     2.259   .     S
O22    C32     1.284   .     A
O23    C34     1.374   .     S
C24    O35     1.261   .     A
C24    O36     1.260   .     A
C24    C113    1.467   .     S
O25    C34     1.211   .     D
O26    C37     1.255   .     A
O27    C37     1.264   .     A
O28    C32     1.293   .     A
O29    C39     1.380   .     S
O30    C39     1.206   .     D
O31    C38     1.277   .     A
C32    C281    1.465   .     S
O33    C38     1.282   .     A
C34    C83     1.464   .     S
C37    C263    1.466   .     S
C38    C149    1.466   .     S
C39    C167    1.467   .     S
Y40    O42     2.219   .     S
Y40    O43     2.307   .     S
Y40    O46     2.230   .     S
Y40    O47     2.286   .     S
Y40    O49     2.260   .     S
Y40    O50     2.262   .     S
Y40    O51     2.230   .     S
Y41    O43     2.269   .     S
Y41    O45     2.247   .     S
Y41    O48     2.306   .     S
Y41    O49     2.242   .     S
Y41    O53     2.274   .     S
Y41    O55     2.271   .     S
Y41    O56     2.250   .     S
O42    C52     1.281   .     A
O43    C54     1.383   .     S
C44    O55     1.263   .     A
C44    O56     1.258   .     A
C44    C221    1.466   .     S
O45    C54     1.211   .     D
O46    C57     1.256   .     A
O47    C57     1.266   .     A
O48    C52     1.294   .     A
O49    C59     1.374   .     S
O50    C59     1.207   .     D
O51    C58     1.277   .     A
C52    C119    1.465   .     S
O53    C58     1.283   .     A
C54    C155    1.464   .     S
C57    C137    1.467   .     S
C58    C227    1.466   .     S
C59    C257    1.465   .     S
Y60    O62     2.224   .     S
Y60    O63     2.287   .     S
Y60    O66     2.240   .     S
Y60    O67     2.266   .     S
Y60    O69     2.261   .     S
Y60    O70     2.260   .     S
Y60    O71     2.239   .     S
Y61    O63     2.261   .     S
Y61    O65     2.264   .     S
Y61    O68     2.318   .     S
Y61    O69     2.255   .     S
Y61    O73     2.274   .     S
Y61    O75     2.260   .     S
Y61    O76     2.266   .     S
O62    C72     1.282   .     A
O63    C74     1.375   .     S
C64    O75     1.259   .     A
C64    O76     1.260   .     A
C64    C209    1.467   .     S
O65    C74     1.210   .     D
O66    C77     1.256   .     A
O67    C77     1.263   .     A
O68    C72     1.294   .     A
O69    C79     1.376   .     S
O70    C79     1.207   .     D
O71    C78     1.276   .     A
C72    C131    1.466   .     S
O73    C78     1.284   .     A
C74    C101    1.466   .     S
C77    C293    1.460   .     S
C78    C203    1.463   .     S
C79    C173    1.462   .     S
C80    N81     1.358   .     A
C80    N85     1.357   .     A
C80    C86     1.469   .     S
N81    N82     1.333   .     A
N82    C83     1.358   .     A
C83    N84     1.358   .     A
N84    N85     1.332   .     A
C86    N87     1.360   .     A
C86    N91     1.356   1_554 A
N87    N88     1.333   1_554 A
N88    C89     1.358   .     A
N88    N87     1.333   1_556 A
C89    N90     1.358   .     A
C89    C92     1.468   .     S
N90    N91     1.331   .     A
N91    C86     1.356   1_556 A
C92    N93     1.355   .     A
C92    N97     1.361   .     A
N93    N94     1.329   .     A
N94    C95     1.357   .     A
C95    N96     1.358   .     A
N96    N97     1.336   .     A
C98    N99     1.357   .     A
C98    N103    1.358   .     A
C98    C104    1.471   .     S
N99    N100    1.332   .     A
N100   C101    1.357   .     A
C101   N102    1.358   .     A
N102   N103    1.334   .     A
C104   N105    1.358   .     A
C104   N109    1.358   .     A
N105   N106    1.332   .     A
N106   C107    1.358   .     A
C107   N108    1.358   .     A
C107   C110    1.471   .     S
N108   N109    1.333   .     A
C110   N111    1.358   .     A
C110   N115    1.358   .     A
N111   N112    1.333   1_545 A
N112   C113    1.358   .     A
N112   N111    1.333   1_565 A
C113   N114    1.357   1_565 A
N114   N115    1.332   .     A
N114   C113    1.357   1_545 A
C116   N117    1.361   .     A
C116   N121    1.353   .     A
C116   C122    1.466   .     S
N117   N118    1.335   .     A
N118   C119    1.356   .     A
C119   N120    1.358   .     A
N120   N121    1.329   .     A
C122   N123    1.360   .     A
C122   N127    1.354   .     A
N123   N124    1.333   .     A
N124   C125    1.356   .     A
C125   N126    1.358   .     A
C125   C128    1.466   .     S
N126   N127    1.330   .     A
C128   N129    1.352   .     A
C128   N133    1.362   .     A
N129   N130    1.326   .     A
N130   C131    1.356   .     A
C131   N132    1.359   .     A
N132   N133    1.337   .     A
C134   N135    1.361   .     A
C134   N139    1.355   .     A
C134   C140    1.470   .     S
N135   N136    1.338   .     A
N136   C137    1.361   .     A
C137   N138    1.354   .     A
N138   N139    1.328   .     A
C140   N145    1.360   .     A
C140   N141    1.355   1_545 A
N141   N142    1.328   .     A
N141   C140    1.355   1_565 A
N142   C143    1.355   .     A
C143   C146    1.470   .     S
C143   N144    1.361   1_565 A
N144   N145    1.337   .     A
N144   C143    1.361   1_545 A
C146   N147    1.360   .     A
C146   N151    1.356   .     A
N147   N148    1.337   1_556 A
N148   C149    1.360   .     A
N148   N147    1.337   1_554 A
C149   N150    1.355   .     A
N150   N151    1.329   1_554 A
N151   N150    1.329   1_556 A
C152   N153    1.357   .     A
C152   N157    1.359   .     A
C152   C158    1.471   .     S
N153   N154    1.331   .     A
N154   C155    1.358   .     A
C155   N156    1.358   .     A
N156   N157    1.334   .     A
C158   N159    1.360   .     A
C158   N163    1.357   1_545 A
N159   N160    1.335   .     A
N160   C161    1.358   1_545 A
C161   N162    1.357   .     A
C161   C164    1.471   .     S
C161   N160    1.358   1_565 A
N162   N163    1.331   .     A
N163   C158    1.357   1_565 A
C164   N165    1.355   .     A
C164   N169    1.362   .     A
N165   N166    1.329   .     A
N166   C167    1.356   .     A
C167   N168    1.359   .     A
N168   N169    1.337   .     A
C170   N171    1.355   .     A
C170   N175    1.359   .     A
C170   C176    1.465   .     S
N171   N172    1.332   .     A
N172   C173    1.358   .     A
C173   N174    1.354   .     A
N174   N175    1.332   .     A
C176   N177    1.351   .     A
C176   N181    1.358   .     A
N177   N178    1.327   .     A
N178   C179    1.354   .     A
C179   N180    1.357   .     A
C179   C182    1.465   .     S
N180   N181    1.335   .     A
C182   N183    1.357   .     A
C182   N187    1.350   .     A
N183   N184    1.335   .     A
N184   C185    1.356   .     A
C185   N186    1.349   .     A
N186   N187    1.324   .     A
C188   N189    1.359   .     A
C188   N193    1.358   .     A
C188   C194    1.474   .     S
N189   N190    1.335   1_554 A
N190   C191    1.359   .     A
N190   N189    1.335   1_556 A
C191   N192    1.357   .     A
N192   N193    1.332   1_556 A
N193   N192    1.332   1_554 A
C194   N195    1.357   .     A
C194   N199    1.359   .     A
N195   N196    1.331   .     A
N196   C197    1.357   .     A
C197   N198    1.359   .     A
C197   C200    1.473   .     S
N198   N199    1.335   .     A
C200   N201    1.360   .     A
C200   N205    1.356   .     A
N201   N202    1.336   .     A
N202   C203    1.359   .     A
C203   N204    1.356   .     A
N204   N205    1.330   .     A
C206   N207    1.360   .     A
C206   N211    1.358   .     A
C206   C212    1.471   .     S
N207   N208    1.332   .     A
N208   C209    1.358   .     A
C209   N210    1.358   .     A
N210   N211    1.332   .     A
C212   N213    1.360   .     A
C212   N217    1.358   .     A
N213   N214    1.331   .     A
N214   C215    1.359   .     A
C215   N216    1.360   .     A
C215   C218    1.470   .     S
N216   N217    1.330   .     A
C218   N219    1.358   .     A
C218   N223    1.361   .     A
N219   N220    1.329   1_455 A
N220   C221    1.358   .     A
N220   N219    1.329   1_655 A
C221   N222    1.359   .     A
N222   N223    1.333   1_655 A
N223   N222    1.333   1_455 A
C224   N225    1.354   .     A
C224   N229    1.362   .     A
C224   C230    1.469   .     S
N225   N226    1.325   1_565 A
N226   C227    1.353   .     A
N226   N225    1.325   1_545 A
C227   N228    1.362   1_545 A
N228   N229    1.339   .     A
N228   C227    1.362   1_565 A
C230   N231    1.362   .     A
C230   N235    1.354   .     A
N231   N232    1.339   1_655 A
N232   C233    1.362   .     A
N232   N231    1.339   1_455 A
C233   N234    1.354   .     A
C233   C236    1.470   .     S
N234   N235    1.325   1_455 A
N235   N234    1.325   1_655 A
C236   N237    1.354   .     A
C236   N241    1.361   .     A
N237   N238    1.326   .     A
N238   C239    1.352   .     A
C239   N240    1.361   .     A
N240   N241    1.339   .     A
C242   N243    1.358   .     A
C242   N247    1.357   .     A
C242   C248    1.468   1_455 S
N243   N244    1.334   .     A
N244   C245    1.357   .     A
C245   N246    1.356   .     A
N246   N247    1.331   .     A
C248   N249    1.356   .     A
C248   N253    1.359   .     A
C248   C242    1.468   1_655 S
N249   N250    1.331   .     A
N250   C251    1.357   .     A
C251   N252    1.358   .     A
C251   C254    1.468   .     S
N252   N253    1.334   .     A
C254   N255    1.360   .     A
C254   N259    1.356   .     A
N255   N256    1.335   .     A
N256   C257    1.358   .     A
C257   N258    1.356   .     A
N258   N259    1.330   .     A
C260   N261    1.356   .     A
C260   N265    1.360   1_554 A
C260   C266    1.469   1_554 S
N261   N262    1.331   .     A
N262   C263    1.357   .     A
C263   N264    1.357   1_554 A
N264   N265    1.334   .     A
N264   C263    1.357   1_556 A
N265   C260    1.360   1_556 A
C266   N267    1.356   .     A
C266   C260    1.469   1_556 S
C266   N271    1.359   1_556 A
N267   N268    1.332   .     A
N268   C269    1.358   .     A
C269   C272    1.470   .     S
C269   N270    1.357   1_556 A
N270   N271    1.334   .     A
N270   C269    1.357   1_554 A
N271   C266    1.359   1_554 A
C272   N277    1.355   .     A
C272   N273    1.361   1_655 A
N273   N274    1.336   .     A
N273   C272    1.361   1_455 A
N274   C275    1.359   .     A
C275   N276    1.357   .     A
N276   N277    1.329   1_455 A
N277   N276    1.329   1_655 A
C278   N279    1.352   .     A
C278   N283    1.362   .     A
C278   C284    1.465   .     S
N279   N280    1.326   .     A
N280   C281    1.356   .     A
C281   N282    1.359   .     A
N282   N283    1.337   .     A
C284   N285    1.357   .     A
C284   N289    1.357   .     A
N285   N286    1.334   .     A
N286   C287    1.360   .     A
C287   N288    1.354   .     A
C287   C290    1.463   .     S
N288   N289    1.329   .     A
C290   N291    1.359   .     A
C290   N295    1.355   .     A
N291   N292    1.332   .     A
N292   C293    1.356   .     A
C293   N294    1.358   .     A
N294   N295    1.331   .     A
