data_lcy+N173+E70
_audit_creation_date              2025-01-21
_audit_creation_method            'Materials Studio'
_symmetry_space_group_name_H-M    'P1'
_symmetry_Int_Tables_number       1
_symmetry_cell_setting            triclinic
loop_
_symmetry_equiv_pos_as_xyz
  x,y,z
_cell_length_a                    17.3183
_cell_length_b                    17.8547
_cell_length_c                    17.4762
_cell_angle_alpha                 101.1598
_cell_angle_beta                  81.7828
_cell_angle_gamma                 103.8039
loop_
_atom_site_label
_atom_site_type_symbol
_atom_site_fract_x
_atom_site_fract_y
_atom_site_fract_z
_atom_site_U_iso_or_equiv
_atom_site_adp_type
_atom_site_occupancy
Gd0    Gd    0.10434   0.63789   0.75949   0.00000  Uiso   1.00
Gd1    Gd    0.12318   0.56651   0.95718   0.00000  Uiso   1.00
O2     O     0.01956   0.51967   0.88657   0.00000  Uiso   1.00
O3     O     0.07323   0.50515   0.76618   0.00000  Uiso   1.00
O4     O     0.15730   0.53127   0.75100   0.00000  Uiso   1.00
O5     O     0.21961   0.54335   0.85847   0.00000  Uiso   1.00
O6     O     0.06868   0.74367   0.74250   0.00000  Uiso   1.00
O7     O    -0.00102   0.62900   0.69767   0.00000  Uiso   1.00
O8     O     0.22239   0.68808   0.81060   0.00000  Uiso   1.00
C9     C     0.00842   0.70394   0.70653   0.00000  Uiso   1.00
O10    O     0.18845   0.69016   0.93845   0.00000  Uiso   1.00
O11    O     0.02340   0.65322   0.87144   0.00000  Uiso   1.00
C12    C     0.21951   0.53158   0.78396   0.00000  Uiso   1.00
O13    O     0.10640   0.69003   0.96247   0.00000  Uiso   1.00
O14    O     0.11716   0.45439   0.98978   0.00000  Uiso   1.00
O15    O     0.19631   0.55766   0.04718   0.00000  Uiso   1.00
C16    C     0.03266   0.47408   0.82433   0.00000  Uiso   1.00
C17    C     0.16641   0.48337   1.04103   0.00000  Uiso   1.00
C18    C     0.04639   0.69833   0.93290   0.00000  Uiso   1.00
C19    C     0.24154   0.70328   0.88054   0.00000  Uiso   1.00
Gd20   Gd    0.67162   0.84508   0.05417   0.00000  Uiso   1.00
Gd21   Gd    0.55608   0.91489   0.14093   0.00000  Uiso   1.00
O22    O     0.44036   0.84624   0.08770   0.00000  Uiso   1.00
O23    O     0.54440   0.81923   0.03978   0.00000  Uiso   1.00
O24    O     0.64783   0.77329   0.14860   0.00000  Uiso   1.00
O25    O     0.54658   0.82386   0.21683   0.00000  Uiso   1.00
O26    O     0.80194   0.88112   0.06923   0.00000  Uiso   1.00
O27    O     0.76415   0.77980  -0.01155   0.00000  Uiso   1.00
O28    O     0.75534   0.93194   0.13073   0.00000  Uiso   1.00
C29    C     0.82251   0.82641   0.01960   0.00000  Uiso   1.00
O30    O     0.66083   0.98212   0.20870   0.00000  Uiso   1.00
O31    O     0.68738   0.92200  -0.03274   0.00000  Uiso   1.00
C32    C     0.59416   0.77659   0.20654   0.00000  Uiso   1.00
O33    O     0.58928   0.97930   0.03304   0.00000  Uiso   1.00
O34    O     0.48406   0.99956   0.20672   0.00000  Uiso   1.00
O35    O     0.54353   0.01951   0.09473   0.00000  Uiso   1.00
C36    C     0.47229   0.80475   0.03185   0.00000  Uiso   1.00
C37    C     0.49720   0.04216   0.15367   0.00000  Uiso   1.00
C38    C     0.63852   0.96606  -0.02903   0.00000  Uiso   1.00
C39    C     0.73250   0.97218   0.19480   0.00000  Uiso   1.00
Gd40   Gd    0.90538   0.06323   0.61799   0.00000  Uiso   1.00
Gd41   Gd    0.83917   0.15548   0.61793   0.00000  Uiso   1.00
O42    O     0.87061   0.20608   0.73670   0.00000  Uiso   1.00
O43    O     0.95934   0.13364   0.72724   0.00000  Uiso   1.00
O44    O     1.00930   0.12642   0.54941   0.00000  Uiso   1.00
O45    O     0.95580   0.22969   0.57403   0.00000  Uiso   1.00
O46    O     0.85134   0.95418   0.67116   0.00000  Uiso   1.00
O47    O    -0.03183  -0.03446   0.61389   0.00000  Uiso   1.00
O48    O     0.85581   1.00495   0.50296   0.00000  Uiso   1.00
C49    C     0.91028   0.92189   0.64757   0.00000  Uiso   1.00
O50    O     0.80788   0.10710   0.49556   0.00000  Uiso   1.00
O51    O     0.79938   0.01000   0.69688   0.00000  Uiso   1.00
C52    C     1.01720   0.19928   0.55447   0.00000  Uiso   1.00
O53    O     0.72769   0.08688   0.67250   0.00000  Uiso   1.00
O54    O     0.78077   0.25785   0.65289   0.00000  Uiso   1.00
O55    O     0.75936   0.19075   0.54452   0.00000  Uiso   1.00
C56    C     0.93249   0.19480   0.75883   0.00000  Uiso   1.00
C57    C     0.74051   0.24447   0.59628   0.00000  Uiso   1.00
C58    C     0.73555   0.03650   0.71088   0.00000  Uiso   1.00
C59    C     0.82614   0.04244   0.46293   0.00000  Uiso   1.00
Gd60   Gd    0.36206   0.42449   0.36860   0.00000  Uiso   1.00
Gd61   Gd    0.46536   0.40025   0.41331   0.00000  Uiso   1.00
O62    O     0.46280   0.49443   0.51396   0.00000  Uiso   1.00
O63    O     0.34047   0.48885   0.49199   0.00000  Uiso   1.00
O64    O     0.28051   0.32187   0.40620   0.00000  Uiso   1.00
O65    O     0.36977   0.32080   0.48335   0.00000  Uiso   1.00
O66    O     0.33380   0.38021   0.24561   0.00000  Uiso   1.00
O67    O     0.26196   0.45223   0.31948   0.00000  Uiso   1.00
O68    O     0.39292   0.34496   0.25559   0.00000  Uiso   1.00
C69    C     0.27570   0.41352   0.25212   0.00000  Uiso   1.00
O70    O     0.47207   0.30207   0.31624   0.00000  Uiso   1.00
O71    O     0.44020   0.53049   0.33030   0.00000  Uiso   1.00
C72    C     0.29741   0.30158   0.46566   0.00000  Uiso   1.00
O73    O     0.54508   0.48873   0.34549   0.00000  Uiso   1.00
O74    O     0.45467   0.32300   0.50368   0.00000  Uiso   1.00
O75    O     0.56933   0.37285   0.45294   0.00000  Uiso   1.00
C76    C     0.39405   0.50605   0.53930   0.00000  Uiso   1.00
C77    C     0.53006   0.33273   0.50288   0.00000  Uiso   1.00
C78    C     0.51515   0.54028   0.32692   0.00000  Uiso   1.00
C79    C     0.43557   0.29567   0.25729   0.00000  Uiso   1.00
N80    N     0.35123   0.75300   0.96585   0.00000  Uiso   1.00
H81    H     0.53111   0.74975   0.87694   0.00000  Uiso   1.00
C82    C     0.43044   0.76149   0.96409   0.00000  Uiso   1.00
C83    C     0.46717   0.74220   0.89021   0.00000  Uiso   1.00
C84    C     0.32692   0.72800   0.89368   0.00000  Uiso   1.00
S85    S     0.40188   0.71608   0.81958   0.00000  Uiso   1.00
N86    N     0.48577   0.17910   0.19481   0.00000  Uiso   1.00
H87    H     0.31416   0.21256   0.16389   0.00000  Uiso   1.00
C88    C     0.43347   0.22498   0.19826   0.00000  Uiso   1.00
C89    C     0.36559   0.18706   0.16160   0.00000  Uiso   1.00
C90    C     0.45734   0.10662   0.15695   0.00000  Uiso   1.00
S91    S     0.36498   0.09123   0.12475   0.00000  Uiso   1.00
N92    N     0.64001   0.28568   0.53666   0.00000  Uiso   1.00
H93    H     0.63836   0.28733   0.72555   0.00000  Uiso   1.00
C94    C     0.66996   0.27648   0.59963   0.00000  Uiso   1.00
C95    C     0.62271   0.29122   0.66864   0.00000  Uiso   1.00
C96    C     0.56967   0.30740   0.55830   0.00000  Uiso   1.00
S97    S     0.53741   0.31676   0.65617   0.00000  Uiso   1.00
N98    N     0.69752   0.01008   0.84591   0.00000  Uiso   1.00
H99    H     0.56613   1.00086   0.72340   0.00000  Uiso   1.00
C100   C     0.67587   1.01491   0.77648   0.00000  Uiso   1.00
C101   C     0.59430   1.00285   0.77561   0.00000  Uiso   1.00
C102   C     0.63287   0.99326   0.89809   0.00000  Uiso   1.00
S103   S     0.54197   0.97758   0.86124   0.00000  Uiso   1.00
N104   N     0.76672   1.01726   0.33372   0.00000  Uiso   1.00
H105   H     0.94782  -0.00042   0.35544   0.00000  Uiso   1.00
C106   C     0.82620   1.01765   0.37667   0.00000  Uiso   1.00
C107   C     0.89325  -0.00045   0.33166   0.00000  Uiso   1.00
C108   C     0.78931   0.99799   0.25599   0.00000  Uiso   1.00
S109   S     0.88426  -0.01881   0.23396   0.00000  Uiso   1.00
N110   N     0.29926   0.52395   0.65645   0.00000  Uiso   1.00
H111   H     0.48602   0.51597   0.66270   0.00000  Uiso   1.00
C112   C     0.37403   0.52391   0.62460   0.00000  Uiso   1.00
C113   C     0.42427   0.52042   0.67803   0.00000  Uiso   1.00
C114   C     0.29279   0.52233   0.73382   0.00000  Uiso   1.00
S115   S     0.37783   0.51755   0.77043   0.00000  Uiso   1.00
N116   N     0.22671   0.46176   0.15164   0.00000  Uiso   1.00
H117   H     0.11416   0.32173   0.03682   0.00000  Uiso   1.00
C118   C     0.18229   0.43391   0.09156   0.00000  Uiso   1.00
C119   C     0.15034   0.35456   0.08332   0.00000  Uiso   1.00
C120   C     0.22727   0.40287   0.18913   0.00000  Uiso   1.00
S121   S     0.17553   0.31201   0.15241   0.00000  Uiso   1.00
N122   N     0.15822   0.23472   0.49805   0.00000  Uiso   1.00
H123   H     0.27327   0.35798   0.62260   0.00000  Uiso   1.00
C124   C     0.22967   0.27476   0.52167   0.00000  Uiso   1.00
C125   C     0.22352   0.31748   0.59572   0.00000  Uiso   1.00
C126   C     0.09867   0.24817   0.55348   0.00000  Uiso   1.00
S127   S     0.12756   0.31188   0.63572   0.00000  Uiso   1.00
N128   N    -0.03717   0.82033   0.69007   0.00000  Uiso   1.00
H129   H     0.82158   0.78295   0.57042   0.00000  Uiso   1.00
C130   C     0.90966   0.84043   0.65287   0.00000  Uiso   1.00
C131   C     0.86255   0.77752   0.60976   0.00000  Uiso   1.00
C132   C    -0.04527   0.74191   0.67685   0.00000  Uiso   1.00
S133   S     0.88371   0.69023   0.61545   0.00000  Uiso   1.00
N134   N     0.96484   0.33368   0.80840   0.00000  Uiso   1.00
H135   H     0.15108   0.39769   0.84890   0.00000  Uiso   1.00
C136   C     0.02838   0.39068   0.82692   0.00000  Uiso   1.00
C137   C     0.09240   0.36196   0.83891   0.00000  Uiso   1.00
C138   C     0.97963   0.26204   0.80669   0.00000  Uiso   1.00
S139   S     0.07309   0.26244   0.82890   0.00000  Uiso   1.00
N140   N     0.92732   0.75175   0.97461   0.00000  Uiso   1.00
H141   H     0.96363   0.94291   1.02787   0.00000  Uiso   1.00
C142   C     0.90583   0.81995   1.00082   0.00000  Uiso   1.00
C143   C     0.96949   0.88309   1.00954   0.00000  Uiso   1.00
C144   C     1.00727   0.76271   0.96522   0.00000  Uiso   1.00
S145   S     1.05918   0.85745   0.98415   0.00000  Uiso   1.00
N146   N     0.54733   0.65236   0.25707   0.00000  Uiso   1.00
H147   H     0.68266   0.80030   0.33399   0.00000  Uiso   1.00
C148   C     0.59114   0.72569   0.26349   0.00000  Uiso   1.00
C149   C     0.64220   0.74401   0.32083   0.00000  Uiso   1.00
C150   C     0.56479   0.61500   0.30992   0.00000  Uiso   1.00
S151   S     0.63531   0.66871   0.36998   0.00000  Uiso   1.00
loop_
_geom_bond_atom_site_label_1
_geom_bond_atom_site_label_2
_geom_bond_distance
_geom_bond_site_symmetry_2
_ccdc_geom_bond_type
Gd0    O3      2.324   .     S
Gd0    O4      2.274   .     S
Gd0    O6      2.205   .     S
Gd0    O7      2.209   .     S
Gd0    O8      2.262   .     S
Gd0    O11     2.249   .     S
Gd1    O2      2.227   .     S
Gd1    O5      2.273   .     S
Gd1    O10     2.290   .     S
Gd1    O13     2.275   .     S
Gd1    O14     2.161   .     S
Gd1    O15     2.205   1_556 S
O2     C16     1.254   .     A
O3     C16     1.289   .     A
O4     C12     1.291   .     A
O5     C12     1.278   .     A
O6     C9      1.284   .     A
O7     C9      1.290   .     A
O8     C19     1.274   .     A
C9     C132    1.472   .     S
O10    C19     1.284   .     A
O11    C18     1.263   .     A
C12    C114    1.460   .     S
O13    C18     1.275   .     A
O14    C17     1.275   .     A
O15    Gd1     2.205   1_554 S
O15    C17     1.293   1_554 A
C16    C136    1.482   .     S
C17    O15     1.293   1_556 A
C17    C118    1.457   1_556 S
C18    C144    1.453   1_455 S
C19    C84     1.477   .     S
Gd20   O23     2.181   .     S
Gd20   O24     2.216   .     S
Gd20   O26     2.233   .     S
Gd20   O27     2.257   .     S
Gd20   O28     2.231   .     S
Gd20   O31     2.186   .     S
Gd21   O22     2.303   .     S
Gd21   O25     2.252   .     S
Gd21   O30     2.271   .     S
Gd21   O33     2.329   .     S
Gd21   O34     2.231   .     S
Gd21   O35     2.239   1_565 S
O22    C36     1.252   .     A
O23    C36     1.236   .     A
O24    C32     1.275   .     A
O25    C32     1.286   .     A
O26    C29     1.258   .     A
O27    C29     1.261   .     A
O28    C39     1.274   .     A
C29    C142    1.460   1_554 S
O30    C39     1.278   .     A
O31    C38     1.273   .     A
C32    C148    1.460   .     S
O33    C38     1.301   .     A
O34    C37     1.273   1_565 A
O35    C37     1.275   .     A
O35    Gd21    2.239   1_545 S
C36    C82     1.466   1_554 S
C37    C90     1.465   .     S
C37    O34     1.273   1_545 A
C38    C102    1.472   1_554 S
C39    C108    1.489   .     S
Gd40   O43     2.262   .     S
Gd40   O44     2.210   .     S
Gd40   O51     2.264   .     S
Gd40   O46     2.261   1_545 S
Gd40   O47     2.251   1_655 S
Gd40   O48     2.262   1_545 S
Gd41   O42     2.187   .     S
Gd41   O45     2.258   .     S
Gd41   O50     2.237   .     S
Gd41   O53     2.221   .     S
Gd41   O54     2.238   .     S
Gd41   O55     2.278   .     S
O42    C56     1.261   .     A
O43    C56     1.284   .     A
O44    C52     1.262   .     A
O45    C52     1.281   .     A
O46    C49     1.270   .     A
O46    Gd40    2.261   1_565 S
O47    Gd40    2.251   1_455 S
O47    C49     1.263   1_445 A
O48    Gd40    2.262   1_565 S
O48    C59     1.284   1_565 A
C49    C130    1.473   .     S
C49    O47     1.263   1_665 A
O50    C59     1.275   .     A
O51    C58     1.278   .     A
C52    C126    1.471   1_655 S
O53    C58     1.263   .     A
O54    C57     1.244   .     A
O55    C57     1.255   .     A
C56    C138    1.465   .     S
C57    C94     1.457   .     S
C58    C100    1.474   1_545 S
C59    O48     1.284   1_545 A
C59    C106    1.487   1_545 S
Gd60   O63     2.264   .     S
Gd60   O64     2.179   .     S
Gd60   O66     2.223   .     S
Gd60   O67     2.233   .     S
Gd60   O68     2.275   .     S
Gd60   O71     2.207   .     S
Gd61   O62     2.189   .     S
Gd61   O65     2.285   .     S
Gd61   O70     2.203   .     S
Gd61   O73     2.241   .     S
Gd61   O74     2.251   .     S
Gd61   O75     2.207   .     S
O62    C76     1.260   .     A
O63    C76     1.274   .     A
O64    C72     1.257   .     A
O65    C72     1.284   .     A
O66    C69     1.267   .     A
O67    C69     1.266   .     A
O68    C79     1.284   .     A
C69    C120    1.435   .     S
O70    C79     1.257   .     A
O71    C78     1.262   .     A
C72    C124    1.466   .     S
O73    C78     1.270   .     A
O74    C77     1.274   .     A
O75    C77     1.256   .     A
C76    C112    1.472   .     S
C77    C96     1.456   .     S
C78    C150    1.463   .     S
C79    C88     1.464   .     S
N80    C82     1.340   .     A
N80    C84     1.346   .     A
H81    C83     1.080   .     S
C82    C83     1.374   .     A
C82    C36     1.466   1_556 S
C83    S85     1.716   .     A
C84    S85     1.718   .     A
N86    C88     1.347   .     A
N86    C90     1.346   .     A
H87    C89     1.085   .     S
C88    C89     1.385   .     A
C89    S91     1.706   .     A
C90    S91     1.714   .     A
N92    C94     1.334   .     A
N92    C96     1.347   .     A
H93    C95     1.086   .     S
C94    C95     1.375   .     A
C95    S97     1.700   .     A
C96    S97     1.711   .     A
N98    C100    1.344   1_545 A
N98    C102    1.352   1_545 A
H99    C101    1.085   .     S
C100   C101    1.379   .     A
C100   N98     1.344   1_565 A
C100   C58     1.474   1_565 S
C101   S103    1.716   .     A
C102   S103    1.727   .     A
C102   N98     1.352   1_565 A
C102   C38     1.472   1_556 S
N104   C106    1.357   .     A
N104   C108    1.359   .     A
H105   C107    1.085   .     S
C106   C107    1.375   1_565 A
C106   C59     1.487   1_565 S
C107   S109    1.698   .     A
C107   C106    1.375   1_545 A
C108   S109    1.718   1_565 A
S109   C108    1.718   1_545 A
N110   C112    1.335   .     A
N110   C114    1.346   .     A
H111   C113    1.083   .     S
C112   C113    1.383   .     A
C113   S115    1.703   .     A
C114   S115    1.713   .     A
N116   C118    1.337   .     A
N116   C120    1.345   .     A
H117   C119    1.087   .     S
C118   C119    1.380   .     A
C118   C17     1.457   1_554 S
C119   S121    1.700   .     A
C120   S121    1.707   .     A
N122   C124    1.350   .     A
N122   C126    1.342   .     A
H123   C125    1.083   .     S
C124   C125    1.373   .     A
C125   S127    1.696   .     A
C126   S127    1.706   .     A
C126   C52     1.471   1_455 S
N128   C132    1.350   .     A
N128   C130    1.348   1_455 A
H129   C131    1.088   .     S
C130   C131    1.381   .     A
C130   N128    1.348   1_655 A
C131   S133    1.708   .     A
C132   S133    1.723   1_455 A
S133   C132    1.723   1_655 A
N134   C138    1.357   .     A
N134   C136    1.338   1_655 A
H135   C137    1.081   .     S
C136   C137    1.384   .     A
C136   N134    1.338   1_455 A
C137   S139    1.707   .     A
C138   S139    1.716   1_655 A
S139   C138    1.716   1_455 A
N140   C142    1.335   .     A
N140   C144    1.342   .     A
H141   C143    1.079   .     S
C142   C143    1.378   .     A
C142   C29     1.460   1_556 S
C143   S145    1.698   .     A
C144   S145    1.709   .     A
C144   C18     1.453   1_655 S
N146   C148    1.340   .     A
N146   C150    1.343   .     A
H147   C149    1.084   .     S
C148   C149    1.372   .     A
C149   S151    1.703   .     A
C150   S151    1.712   .     A
