data_lcy+N155+E35
_audit_creation_date              2025-01-21
_audit_creation_method            'Materials Studio'
_symmetry_space_group_name_H-M    'P1'
_symmetry_Int_Tables_number       1
_symmetry_cell_setting            triclinic
loop_
_symmetry_equiv_pos_as_xyz
  x,y,z
_cell_length_a                    26.0257
_cell_length_b                    26.0339
_cell_length_c                    25.1469
_cell_angle_alpha                 92.4530
_cell_angle_beta                  98.7029
_cell_angle_gamma                 96.5020
loop_
_atom_site_label
_atom_site_type_symbol
_atom_site_fract_x
_atom_site_fract_y
_atom_site_fract_z
_atom_site_U_iso_or_equiv
_atom_site_adp_type
_atom_site_occupancy
C0     C     0.21977   0.56109   0.82418   0.00000  Uiso   1.00
Ho1    Ho    0.14385   0.60673   0.84744   0.00000  Uiso   1.00
C2     C     0.02030   0.66507   0.99230   0.00000  Uiso   1.00
Ho3    Ho    0.08734   0.63695   0.93386   0.00000  Uiso   1.00
O4     O     0.18857   0.54065   0.85471   0.00000  Uiso   1.00
O5     O     0.21667   0.60889   0.81665   0.00000  Uiso   1.00
O6     O     0.09281   0.55896   0.78564   0.00000  Uiso   1.00
O7     O     0.06852   0.57794   0.86467   0.00000  Uiso   1.00
C8     C     0.06045   0.54717   0.81527   0.00000  Uiso   1.00
C9     C     0.18300   0.69399   0.93754   0.00000  Uiso   1.00
O10    O     0.16049   0.54566   0.90793   0.00000  Uiso   1.00
O11    O     0.11989   0.57548   0.97726   0.00000  Uiso   1.00
O12    O     0.06902   0.68132   1.00464   0.00000  Uiso   1.00
O13    O     0.01020   0.62997   0.95459   0.00000  Uiso   1.00
O14    O     0.14658   0.70889   0.95539   0.00000  Uiso   1.00
O15    O     0.17110   0.64325   0.92410   0.00000  Uiso   1.00
O16    O     0.06221   0.69340   0.87689   0.00000  Uiso   1.00
O17    O     0.11506   0.67810   0.81631   0.00000  Uiso   1.00
C18    C     0.08200   0.70466   0.83457   0.00000  Uiso   1.00
C19    C     0.14808   0.54392   0.95689   0.00000  Uiso   1.00
C20    C     0.58245   0.76946   0.20898   0.00000  Uiso   1.00
Ho21   Ho    0.61849   0.84162   0.15155   0.00000  Uiso   1.00
C22    C     0.69707   0.97707   0.01621   0.00000  Uiso   1.00
Ho23   Ho    0.65821   0.91596   0.08193   0.00000  Uiso   1.00
O24    O     0.56087   0.77655   0.16103   0.00000  Uiso   1.00
O25    O     0.62263   0.80207   0.22722   0.00000  Uiso   1.00
O26    O     0.55003   0.79391   0.10751   0.00000  Uiso   1.00
O27    O     0.58958   0.85784   0.06870   0.00000  Uiso   1.00
C28    C     0.54802   0.81801   0.06650   0.00000  Uiso   1.00
C29    C     0.72323   0.94043   0.17103   0.00000  Uiso   1.00
O30    O     0.57182   0.90509   0.17029   0.00000  Uiso   1.00
O31    O     0.60680   0.96439   0.11558   0.00000  Uiso   1.00
O32    O     0.71732   0.97869   0.06620   0.00000  Uiso   1.00
O33    O     0.65506   0.94602   1.00376   0.00000  Uiso   1.00
O34    O     0.72840   0.96201   0.12975   0.00000  Uiso   1.00
O35    O     0.68199   0.90152   0.16339   0.00000  Uiso   1.00
O36    O     0.70377   0.85444   0.06334   0.00000  Uiso   1.00
O37    O     0.67333   0.79417   0.11852   0.00000  Uiso   1.00
C38    C     0.70387   0.81012   0.08461   0.00000  Uiso   1.00
C39    C     0.57702   0.95109   0.15101   0.00000  Uiso   1.00
C40    C     0.78461   0.23858   0.56586   0.00000  Uiso   1.00
Ho41   Ho    0.85371   0.17918   0.60003   0.00000  Uiso   1.00
C42    C     0.97425   0.03146   0.68278   0.00000  Uiso   1.00
Ho43   Ho    0.91990   0.10220   0.64215   0.00000  Uiso   1.00
O44    O     0.78714   0.19455   0.54227   0.00000  Uiso   1.00
O45    O     0.82104   0.25229   0.60579   0.00000  Uiso   1.00
O46    O     0.79438   0.13628   0.53870   0.00000  Uiso   1.00
O47    O     0.86662   0.10458   0.56751   0.00000  Uiso   1.00
C48    C     0.81665   0.09727   0.53706   0.00000  Uiso   1.00
C49    C     0.92916   0.18181   0.71478   0.00000  Uiso   1.00
O50    O     0.91781   0.19703   0.55144   0.00000  Uiso   1.00
O51    O     0.97444   0.14327   0.59523   0.00000  Uiso   1.00
O52    O     0.97878   0.07734   0.70457   0.00000  Uiso   1.00
O53    O     0.94215   0.02423   0.63891   0.00000  Uiso   1.00
O54    O     0.94272   0.13980   0.72554   0.00000  Uiso   1.00
O55    O     0.91999   0.18458   0.66044   0.00000  Uiso   1.00
O56    O     0.85205   0.07822   0.68019   0.00000  Uiso   1.00
O57    O     0.80622   0.14585   0.65876   0.00000  Uiso   1.00
C58    C     0.81455   0.10545   0.68533   0.00000  Uiso   1.00
C59    C     0.96320   0.17835   0.56073   0.00000  Uiso   1.00
C60    C     0.39965   0.24578   0.27540   0.00000  Uiso   1.00
Ho61   Ho    0.37058   0.32202   0.33041   0.00000  Uiso   1.00
C62    C     0.32721   0.46589   0.47882   0.00000  Uiso   1.00
Ho63   Ho    0.34432   0.40452   0.40016   0.00000  Uiso   1.00
O64    O     0.41940   0.26042   0.32410   0.00000  Uiso   1.00
O65    O     0.36297   0.27165   0.25544   0.00000  Uiso   1.00
O66    O     0.43331   0.28579   0.37646   0.00000  Uiso   1.00
O67    O     0.40312   0.35256   0.41025   0.00000  Uiso   1.00
C68    C     0.44001   0.31764   0.41491   0.00000  Uiso   1.00
C69    C     0.28415   0.41575   0.30833   0.00000  Uiso   1.00
O70    O     0.42602   0.38742   0.30926   0.00000  Uiso   1.00
O71    O     0.40392   0.45174   0.36566   0.00000  Uiso   1.00
O72    O     0.29988   0.46400   0.43178   0.00000  Uiso   1.00
O73    O     0.36461   0.43875   0.48133   0.00000  Uiso   1.00
O74    O     0.28208   0.44187   0.35021   0.00000  Uiso   1.00
O75    O     0.31792   0.37913   0.31699   0.00000  Uiso   1.00
O76    O     0.28874   0.34200   0.41986   0.00000  Uiso   1.00
O77    O     0.30769   0.27591   0.36532   0.00000  Uiso   1.00
C78    C     0.28045   0.29491   0.39926   0.00000  Uiso   1.00
C79    C     0.42890   0.43569   0.32822   0.00000  Uiso   1.00
C80    C     0.39875   0.78142   0.97321   0.00000  Uiso   1.00
C81    C     0.42032   0.83382   0.98103   0.00000  Uiso   1.00
C82    C     0.47231   0.84657   0.00662   0.00000  Uiso   1.00
C83    C     0.50239   0.80726   0.02383   0.00000  Uiso   1.00
C84    C     0.48077   0.75572   0.01145   0.00000  Uiso   1.00
N85    N     0.43030   0.74431   0.98729   0.00000  Uiso   1.00
C86    C     0.34204   0.76390   0.95622   0.00000  Uiso   1.00
N87    N     0.32789   0.71222   0.94551   0.00000  Uiso   1.00
C88    C     0.27742   0.69037   0.93710   0.00000  Uiso   1.00
C89    C     0.23675   0.72077   0.94086   0.00000  Uiso   1.00
C90    C     0.24957   0.77448   0.95025   0.00000  Uiso   1.00
C91    C     0.30229   0.79638   0.95756   0.00000  Uiso   1.00
H92    H     0.48755   0.88690   0.01644   0.00000  Uiso   1.00
H93    H     0.50294   0.72450   0.02444   0.00000  Uiso   1.00
H94    H     0.26973   0.64871   0.92992   0.00000  Uiso   1.00
H95    H     0.21919   0.79925   0.95259   0.00000  Uiso   1.00
H96    H     0.39715   0.86468   0.96983   0.00000  Uiso   1.00
H97    H     0.31139   0.83766   0.96627   0.00000  Uiso   1.00
C98    C     0.47357   0.12314   0.21476   0.00000  Uiso   1.00
C99    C     0.50194   0.17150   0.23309   0.00000  Uiso   1.00
C100   C     0.47614   0.21217   0.24826   0.00000  Uiso   1.00
C101   C     0.42208   0.20556   0.24656   0.00000  Uiso   1.00
C102   C     0.39424   0.15724   0.22773   0.00000  Uiso   1.00
N103   N     0.42040   0.11762   0.21268   0.00000  Uiso   1.00
C104   C     0.50074   0.07827   0.19933   0.00000  Uiso   1.00
N105   N     0.47409   0.02949   0.19066   0.00000  Uiso   1.00
C106   C     0.49747   0.98734   0.17696   0.00000  Uiso   1.00
C107   C     0.55055   0.99324   0.17134   0.00000  Uiso   1.00
C108   C     0.57848   0.04280   0.18015   0.00000  Uiso   1.00
C109   C     0.55402   0.08501   0.19353   0.00000  Uiso   1.00
H110   H     0.49881   0.24865   0.26371   0.00000  Uiso   1.00
H111   H     0.35242   0.15025   0.22735   0.00000  Uiso   1.00
H112   H     0.47456   0.94974   0.16872   0.00000  Uiso   1.00
H113   H     0.61955   0.04928   0.17595   0.00000  Uiso   1.00
H114   H     0.54395   0.17836   0.23807   0.00000  Uiso   1.00
H115   H     0.57749   0.12218   0.19807   0.00000  Uiso   1.00
C116   C     0.64574   0.30570   0.51733   0.00000  Uiso   1.00
C117   C     0.68041   0.29923   0.48033   0.00000  Uiso   1.00
C118   C     0.72750   0.27974   0.49696   0.00000  Uiso   1.00
C119   C     0.74053   0.26779   0.55046   0.00000  Uiso   1.00
C120   C     0.70602   0.27616   0.58683   0.00000  Uiso   1.00
N121   N     0.65952   0.29393   0.56944   0.00000  Uiso   1.00
C122   C     0.59240   0.31882   0.49867   0.00000  Uiso   1.00
N123   N     0.55087   0.29478   0.51905   0.00000  Uiso   1.00
C124   C     0.50034   0.29816   0.49657   0.00000  Uiso   1.00
C125   C     0.49019   0.32616   0.45075   0.00000  Uiso   1.00
C126   C     0.53208   0.35383   0.43141   0.00000  Uiso   1.00
C127   C     0.58318   0.35053   0.45543   0.00000  Uiso   1.00
H128   H     0.75310   0.27239   0.46793   0.00000  Uiso   1.00
H129   H     0.71470   0.26573   0.62819   0.00000  Uiso   1.00
H130   H     0.46852   0.27638   0.51210   0.00000  Uiso   1.00
H131   H     0.52557   0.37520   0.39537   0.00000  Uiso   1.00
H132   H     0.66995   0.30596   0.43813   0.00000  Uiso   1.00
H133   H     0.61520   0.37040   0.43854   0.00000  Uiso   1.00
C134   C     0.75601   0.06430   0.82700   0.00000  Uiso   1.00
C135   C     0.75959   0.11655   0.81429   0.00000  Uiso   1.00
C136   C     0.77329   0.12993   0.76444   0.00000  Uiso   1.00
C137   C     0.78366   0.09154   0.72800   0.00000  Uiso   1.00
C138   C     0.77555   0.03979   0.74053   0.00000  Uiso   1.00
N139   N     0.76252   1.02780   0.78899   0.00000  Uiso   1.00
C140   C     0.74550   0.04578   0.87963   0.00000  Uiso   1.00
N141   N     0.73411   0.99383   0.88208   0.00000  Uiso   1.00
C142   C     0.72253   0.97183   0.92707   0.00000  Uiso   1.00
C143   C     0.72119   1.00253   0.97364   0.00000  Uiso   1.00
C144   C     0.73574   0.05608   0.97415   0.00000  Uiso   1.00
C145   C     0.74793   0.07805   0.92677   0.00000  Uiso   1.00
H146   H     0.77928   0.17039   0.75591   0.00000  Uiso   1.00
H147   H     0.78276   1.00902   0.71335   0.00000  Uiso   1.00
H148   H     0.71269   0.93017   0.92578   0.00000  Uiso   1.00
H149   H     0.73561   0.08076   1.00998   0.00000  Uiso   1.00
H150   H     0.75317   0.14686   0.84239   0.00000  Uiso   1.00
H151   H     0.75850   0.11939   0.92707   0.00000  Uiso   1.00
C152   C     0.77535   1.00138   0.39446   0.00000  Uiso   1.00
C153   C     0.82118   0.99436   0.42920   0.00000  Uiso   1.00
C154   C     0.83282   1.02185   0.47945   0.00000  Uiso   1.00
C155   C     0.79847   0.05546   0.49491   0.00000  Uiso   1.00
C156   C     0.75046   0.05663   0.46143   0.00000  Uiso   1.00
N157   N     0.74094   0.03107   0.41222   0.00000  Uiso   1.00
C158   C     0.76732   0.98521   0.33625   0.00000  Uiso   1.00
N159   N     0.74046   0.01485   0.30142   0.00000  Uiso   1.00
C160   C     0.73107   1.00380   0.24759   0.00000  Uiso   1.00
C161   C     0.74867   0.96007   0.22537   0.00000  Uiso   1.00
C162   C     0.77599   0.92835   0.26040   0.00000  Uiso   1.00
C163   C     0.78647   0.94132   0.31581   0.00000  Uiso   1.00
H164   H     0.87030   1.01986   0.50417   0.00000  Uiso   1.00
H165   H     0.72258   0.08169   0.47193   0.00000  Uiso   1.00
H166   H     0.70709   0.02736   0.22226   0.00000  Uiso   1.00
H167   H     0.78780   0.89270   0.24489   0.00000  Uiso   1.00
H168   H     0.84955   0.97131   0.41616   0.00000  Uiso   1.00
H169   H     0.80716   0.91640   0.34259   0.00000  Uiso   1.00
C170   C     0.29261   0.50657   0.63317   0.00000  Uiso   1.00
C171   C     0.34486   0.50745   0.62513   0.00000  Uiso   1.00
C172   C     0.35604   0.49972   0.57312   0.00000  Uiso   1.00
C173   C     0.31565   0.49075   0.52878   0.00000  Uiso   1.00
C174   C     0.26412   0.49291   0.53785   0.00000  Uiso   1.00
N175   N     0.25402   0.50011   0.58917   0.00000  Uiso   1.00
C176   C     0.27768   0.51090   0.68787   0.00000  Uiso   1.00
N177   N     0.22595   0.50207   0.69203   0.00000  Uiso   1.00
C178   C     0.20792   0.51024   0.73920   0.00000  Uiso   1.00
C179   C     0.24223   0.53056   0.78540   0.00000  Uiso   1.00
C180   C     0.29566   0.53714   0.78339   0.00000  Uiso   1.00
C181   C     0.31401   0.52663   0.73505   0.00000  Uiso   1.00
H182   H     0.39633   0.49780   0.56771   0.00000  Uiso   1.00
H183   H     0.23180   0.48547   0.50481   0.00000  Uiso   1.00
H184   H     0.16618   0.50661   0.73922   0.00000  Uiso   1.00
H185   H     0.32241   0.55359   0.81848   0.00000  Uiso   1.00
H186   H     0.37696   0.51154   0.65826   0.00000  Uiso   1.00
H187   H     0.35563   0.53425   0.73491   0.00000  Uiso   1.00
C188   C     0.21004   0.46708   0.09167   0.00000  Uiso   1.00
C189   C     0.24345   0.48360   0.05492   0.00000  Uiso   1.00
C190   C     0.22265   0.50335   0.00623   0.00000  Uiso   1.00
C191   C     0.16878   0.50672   0.99468   0.00000  Uiso   1.00
C192   C     0.13650   0.48567   0.03022   0.00000  Uiso   1.00
N193   N     0.15763   0.46754   0.07740   0.00000  Uiso   1.00
C194   C     0.22983   0.45350   0.14723   0.00000  Uiso   1.00
N195   N     0.20004   0.45920   0.18697   0.00000  Uiso   1.00
C196   C     0.21582   0.44783   0.23903   0.00000  Uiso   1.00
C197   C     0.26372   0.42847   0.25331   0.00000  Uiso   1.00
C198   C     0.29479   0.42206   0.21284   0.00000  Uiso   1.00
C199   C     0.27826   0.43472   0.16020   0.00000  Uiso   1.00
H200   H     0.24897   0.51994   0.98018   0.00000  Uiso   1.00
H201   H     0.09471   0.48767   0.02257   0.00000  Uiso   1.00
H202   H     0.19056   0.45309   0.26888   0.00000  Uiso   1.00
H203   H     0.33238   0.40797   0.22217   0.00000  Uiso   1.00
H204   H     0.28536   0.48521   0.06550   0.00000  Uiso   1.00
H205   H     0.30286   0.42900   0.13014   0.00000  Uiso   1.00
C206   C     0.14078   0.23498   0.45373   0.00000  Uiso   1.00
C207   C     0.14015   0.24207   0.39844   0.00000  Uiso   1.00
C208   C     0.18721   0.25666   0.37921   0.00000  Uiso   1.00
C209   C     0.23486   0.26376   0.41467   0.00000  Uiso   1.00
C210   C     0.23401   0.25478   0.46909   0.00000  Uiso   1.00
N211   N     0.18789   0.24084   0.48687   0.00000  Uiso   1.00
C212   C     0.09255   0.22284   0.47858   0.00000  Uiso   1.00
N213   N     0.09904   0.21083   0.53105   0.00000  Uiso   1.00
C214   C     0.05830   0.19866   0.55785   0.00000  Uiso   1.00
C215   C     1.00644   0.19781   0.53193   0.00000  Uiso   1.00
C216   C     0.99809   0.21244   0.47855   0.00000  Uiso   1.00
C217   C     0.04111   0.22453   0.45151   0.00000  Uiso   1.00
H218   H     0.18598   0.26590   0.33741   0.00000  Uiso   1.00
H219   H     0.26960   0.26184   0.49806   0.00000  Uiso   1.00
H220   H     0.06677   0.18919   0.59948   0.00000  Uiso   1.00
H221   H     0.95853   0.21300   0.45753   0.00000  Uiso   1.00
H222   H     0.10409   0.23835   0.37035   0.00000  Uiso   1.00
H223   H     0.03391   0.23477   0.41016   0.00000  Uiso   1.00
C224   C     1.03256   0.89679   0.74565   0.00000  Uiso   1.00
C225   C     0.05970   0.92447   0.70948   0.00000  Uiso   1.00
C226   C     0.04232   0.97021   0.69018   0.00000  Uiso   1.00
C227   C     0.99902   0.98876   0.70795   0.00000  Uiso   1.00
C228   C     0.97445   0.96135   0.74554   0.00000  Uiso   1.00
N229   N     0.99138   0.91667   0.76302   0.00000  Uiso   1.00
C230   C     0.04585   0.84619   0.76522   0.00000  Uiso   1.00
N231   N     1.02355   0.82773   0.80724   0.00000  Uiso   1.00
C232   C     0.03316   0.78210   0.82845   0.00000  Uiso   1.00
C233   C     0.06734   0.75156   0.80741   0.00000  Uiso   1.00
C234   C     0.08923   0.76853   0.76260   0.00000  Uiso   1.00
C235   C     0.07883   0.81588   0.74152   0.00000  Uiso   1.00
H236   H     0.06201   0.99050   0.66085   0.00000  Uiso   1.00
H237   H     0.94057   0.97445   0.75952   0.00000  Uiso   1.00
H238   H     1.01480   0.77039   0.86254   0.00000  Uiso   1.00
H239   H     0.11503   0.74566   0.74444   0.00000  Uiso   1.00
H240   H     0.09330   0.91090   0.69550   0.00000  Uiso   1.00
H241   H     0.09650   0.82817   0.70726   0.00000  Uiso   1.00
C242   C     0.98449   0.39097   0.79124   0.00000  Uiso   1.00
C243   C     0.95573   0.42916   0.80992   0.00000  Uiso   1.00
C244   C     0.97921   0.48139   0.81823   0.00000  Uiso   1.00
C245   C     0.02982   0.49501   0.80593   0.00000  Uiso   1.00
C246   C     0.05593   0.45545   0.78709   0.00000  Uiso   1.00
N247   N     0.03324   0.40607   0.78066   0.00000  Uiso   1.00
C248   C     0.96706   0.33448   0.78183   0.00000  Uiso   1.00
N249   N     0.00336   0.30495   0.76764   0.00000  Uiso   1.00
C250   C     0.99268   0.25392   0.75286   0.00000  Uiso   1.00
C251   C     0.94203   0.22910   0.75015   0.00000  Uiso   1.00
C252   C     0.90351   0.25754   0.76643   0.00000  Uiso   1.00
C253   C     0.91622   0.31041   0.78331   0.00000  Uiso   1.00
H254   H     0.95779   0.51092   0.83282   0.00000  Uiso   1.00
H255   H     0.09531   0.46318   0.77839   0.00000  Uiso   1.00
H256   H     0.02267   0.23436   0.73778   0.00000  Uiso   1.00
H257   H     0.86337   0.23990   0.76357   0.00000  Uiso   1.00
H258   H     0.91621   0.41933   0.81785   0.00000  Uiso   1.00
H259   H     0.88645   0.33235   0.79487   0.00000  Uiso   1.00
C260   C     0.83481   0.74181   0.04534   0.00000  Uiso   1.00
C261   C     0.80022   0.76169   1.00504   0.00000  Uiso   1.00
C262   C     0.75479   0.77924   1.01725   0.00000  Uiso   1.00
C263   C     0.74348   0.77837   0.06977   0.00000  Uiso   1.00
C264   C     0.77778   0.75695   0.10898   0.00000  Uiso   1.00
N265   N     0.82231   0.73977   0.09607   0.00000  Uiso   1.00
C266   C     0.88446   0.72405   0.03304   0.00000  Uiso   1.00
N267   N     0.92626   0.72165   0.07280   0.00000  Uiso   1.00
C268   C     0.97213   0.70516   0.06226   0.00000  Uiso   1.00
C269   C     0.97666   0.68939   1.00928   0.00000  Uiso   1.00
C270   C     0.93498   0.69348   0.96832   0.00000  Uiso   1.00
C271   C     0.88912   0.70974   0.97982   0.00000  Uiso   1.00
H272   H     0.72970   0.79597   0.98594   0.00000  Uiso   1.00
H273   H     0.77075   0.75654   0.15031   0.00000  Uiso   1.00
H274   H     1.00387   0.70301   0.09502   0.00000  Uiso   1.00
H275   H     0.93735   0.68249   0.92676   0.00000  Uiso   1.00
H276   H     0.80881   0.76624   0.96472   0.00000  Uiso   1.00
H277   H     0.85732   0.70911   0.94687   0.00000  Uiso   1.00
C278   C     0.51801   0.62953   0.26538   0.00000  Uiso   1.00
C279   C     0.48571   0.66780   0.24937   0.00000  Uiso   1.00
C280   C     0.50771   0.71529   0.23485   0.00000  Uiso   1.00
C281   C     0.56186   0.72595   0.23787   0.00000  Uiso   1.00
C282   C     0.59349   0.68892   0.25844   0.00000  Uiso   1.00
N283   N     0.57102   0.64183   0.27075   0.00000  Uiso   1.00
C284   C     0.49579   0.57620   0.27577   0.00000  Uiso   1.00
N285   N     0.52740   0.54386   0.30225   0.00000  Uiso   1.00
C286   C     0.50878   0.49559   0.31532   0.00000  Uiso   1.00
C287   C     0.45531   0.47788   0.30176   0.00000  Uiso   1.00
C288   C     0.42282   0.50949   0.27272   0.00000  Uiso   1.00
C289   C     0.44258   0.55804   0.25922   0.00000  Uiso   1.00
H290   H     0.48222   0.74319   0.21934   0.00000  Uiso   1.00
H291   H     0.63558   0.69603   0.26110   0.00000  Uiso   1.00
H292   H     0.53511   0.47257   0.33855   0.00000  Uiso   1.00
H293   H     0.38109   0.49784   0.26298   0.00000  Uiso   1.00
H294   H     0.44376   0.66161   0.24670   0.00000  Uiso   1.00
H295   H     0.41550   0.58069   0.23684   0.00000  Uiso   1.00
loop_
_geom_bond_atom_site_label_1
_geom_bond_atom_site_label_2
_geom_bond_distance
_geom_bond_site_symmetry_2
_ccdc_geom_bond_type
C0     O4      1.288   .     A
C0     O5      1.276   .     A
C0     C179    1.462   .     S
Ho1    O4      2.182   .     S
Ho1    O5      2.149   .     S
Ho1    O6      2.136   .     S
Ho1    O7      2.132   .     S
Ho1    O10     2.279   .     S
Ho1    O15     2.098   .     S
Ho1    O17     2.211   .     S
C2     O12     1.277   .     A
C2     O13     1.264   .     A
C2     C269    1.470   1_455 S
Ho3    O7      2.230   .     S
Ho3    O11     2.156   .     S
Ho3    O12     2.222   .     S
Ho3    O13     2.139   .     S
Ho3    O14     2.277   .     S
Ho3    O15     2.219   .     S
Ho3    O16     2.180   .     S
O6     C8      1.229   .     D
O7     C8      1.424   .     S
C8     C245    1.485   .     S
C9     O14     1.203   .     D
C9     O15     1.339   .     S
C9     C89     1.480   .     S
O10    C19     1.321   .     A
O11    C19     1.300   .     A
O16    C18     1.281   .     A
O17    C18     1.287   .     A
C18    C233    1.484   .     S
C19    C191    1.474   .     S
C20    O24     1.281   .     A
C20    O25     1.283   .     A
C20    C281    1.466   .     S
Ho21   O24     2.178   .     S
Ho21   O25     2.196   .     S
Ho21   O26     2.174   .     S
Ho21   O27     2.181   .     S
Ho21   O30     2.233   .     S
Ho21   O35     2.117   .     S
Ho21   O37     2.219   .     S
C22    O32     1.284   .     A
C22    O33     1.273   1_554 A
C22    C143    1.466   1_554 S
Ho23   O27     2.181   .     S
Ho23   O31     2.175   .     S
Ho23   O32     2.205   .     S
Ho23   O34     2.222   .     S
Ho23   O35     2.111   .     S
Ho23   O36     2.173   .     S
Ho23   O33     2.140   1_554 S
O26    C28     1.227   .     D
O27    C28     1.404   .     S
C28    C83     1.467   .     S
C29    O34     1.219   .     D
C29    O35     1.375   .     S
C29    C161    1.469   .     S
O30    C39     1.312   .     A
O31    C39     1.300   .     A
O33    C22     1.273   1_556 A
O33    Ho23    2.140   1_556 S
O36    C38     1.292   .     A
O37    C38     1.301   .     A
C38    C263    1.473   .     S
C39    C107    1.473   .     S
C40    O44     1.281   .     A
C40    O45     1.280   .     A
C40    C119    1.460   .     S
Ho41   O44     2.172   .     S
Ho41   O45     2.179   .     S
Ho41   O46     2.180   .     S
Ho41   O47     2.156   .     S
Ho41   O50     2.232   .     S
Ho41   O55     2.106   .     S
Ho41   O57     2.209   .     S
C42    O52     1.278   .     A
C42    O53     1.272   .     A
C42    C227    1.467   1_545 S
Ho43   O47     2.166   .     S
Ho43   O51     2.196   .     S
Ho43   O52     2.194   .     S
Ho43   O53     2.175   .     S
Ho43   O54     2.241   .     S
Ho43   O55     2.174   .     S
Ho43   O56     2.176   .     S
O46    C48     1.227   .     D
O47    C48     1.394   .     S
C48    C155    1.471   .     S
C49    O54     1.216   .     D
C49    O55     1.358   .     S
C49    C251    1.464   .     S
O50    C59     1.320   .     A
O51    C59     1.313   .     A
O56    C58     1.288   .     A
O57    C58     1.292   .     A
C58    C137    1.469   .     S
C59    C215    1.482   .     S
C60    O64     1.278   .     A
C60    O65     1.283   .     A
C60    C101    1.471   .     S
Ho61   O64     2.171   .     S
Ho61   O65     2.220   .     S
Ho61   O66     2.183   .     S
Ho61   O67     2.139   .     S
Ho61   O70     2.240   .     S
Ho61   O75     2.137   .     S
Ho61   O77     2.229   .     S
C62    O72     1.281   .     A
C62    O73     1.262   .     A
C62    C173    1.475   .     S
Ho63   O67     2.149   .     S
Ho63   O71     2.176   .     S
Ho63   O72     2.224   .     S
Ho63   O73     2.157   .     S
Ho63   O74     2.234   .     S
Ho63   O75     2.151   .     S
Ho63   O76     2.177   .     S
O66    C68     1.225   .     D
O67    C68     1.391   .     S
C68    C125    1.459   .     S
C69    O74     1.240   .     D
C69    O75     1.371   .     S
C69    C197    1.471   .     S
O70    C79     1.315   .     A
O71    C79     1.303   .     A
O76    C78     1.292   .     A
O77    C78     1.305   .     A
C78    C209    1.471   .     S
C79    C287    1.467   .     S
C80    C81     1.409   .     A
C80    N85     1.362   .     A
C80    C86     1.486   .     S
C81    H96     1.080   .     S
C81    C82     1.404   1_556 A
C82    C83     1.402   .     A
C82    H92     1.084   .     S
C82    C81     1.404   1_554 A
C83    C84     1.398   .     A
C84    H93     1.083   .     S
C84    N85     1.355   1_554 A
N85    C84     1.355   1_556 A
C86    N87     1.359   .     A
C86    C91     1.412   .     A
N87    C88     1.353   .     A
C88    C89     1.403   .     A
C88    H94     1.082   .     S
C89    C90     1.402   .     A
C90    C91     1.407   .     A
C90    H95     1.082   .     S
C91    H97     1.080   .     S
C98    C99     1.407   .     A
C98    N103    1.368   .     A
C98    C104    1.499   .     S
C99    C100    1.386   .     A
C99    H114    1.075   .     S
C100   C101    1.392   .     A
C100   H110    1.083   .     S
C101   C102    1.404   .     A
C102   N103    1.369   .     A
C102   H111    1.082   .     S
C104   N105    1.368   .     A
C104   C109    1.408   .     A
N105   C106    1.369   1_545 A
C106   C107    1.402   .     A
C106   H112    1.081   .     S
C106   N105    1.369   1_565 A
C107   C108    1.399   1_565 A
C108   C109    1.385   .     A
C108   H113    1.085   .     S
C108   C107    1.399   1_545 A
C109   H115    1.076   .     S
C116   C117    1.408   .     A
C116   N121    1.363   .     A
C116   C122    1.479   .     S
C117   C118    1.392   .     A
C117   H132    1.082   .     S
C118   C119    1.394   .     A
C118   H128    1.085   .     S
C119   C120    1.402   .     A
C120   N121    1.362   .     A
C120   H129    1.083   .     S
C122   N123    1.366   .     A
C122   C127    1.401   .     A
N123   C124    1.365   .     A
C124   C125    1.397   .     A
C124   H130    1.082   .     S
C125   C126    1.399   .     A
C126   C127    1.389   .     A
C126   H131    1.085   .     S
C127   H133    1.082   .     S
C134   C135    1.407   .     A
C134   C140    1.481   .     S
C134   N139    1.361   1_545 A
C135   C136    1.402   .     A
C135   H150    1.081   .     S
C136   C137    1.403   .     A
C136   H146    1.083   .     S
C137   C138    1.397   .     A
C138   N139    1.353   1_545 A
C138   H147    1.082   1_545 S
N139   C134    1.361   1_565 A
N139   C138    1.353   1_565 A
C140   C145    1.412   .     A
C140   N141    1.357   1_545 A
N141   C142    1.349   .     A
N141   C140    1.357   1_565 A
C142   C143    1.397   .     A
C142   H148    1.084   .     S
C143   C144    1.402   1_565 A
C143   C22     1.466   1_556 S
C144   C145    1.407   .     A
C144   H149    1.085   .     S
C144   C143    1.402   1_545 A
C145   H151    1.080   .     S
H147   C138    1.082   1_565 S
C152   C153    1.403   .     A
C152   C158    1.483   .     S
C152   N157    1.359   1_565 A
C153   C154    1.399   .     A
C153   H168    1.081   .     S
C154   H164    1.082   .     S
C154   C155    1.403   1_565 A
C155   C156    1.401   .     A
C155   C154    1.403   1_545 A
C156   N157    1.355   .     A
C156   H165    1.083   .     S
N157   C152    1.359   1_545 A
C158   C163    1.405   .     A
C158   N159    1.358   1_565 A
N159   C158    1.358   1_545 A
N159   C160    1.351   1_545 A
C160   C161    1.400   .     A
C160   N159    1.351   1_565 A
C160   H166    1.082   1_565 S
C161   C162    1.403   .     A
C162   C163    1.398   .     A
C162   H167    1.085   .     S
C163   H169    1.082   .     S
H166   C160    1.082   1_545 S
C170   C171    1.403   .     A
C170   N175    1.368   .     A
C170   C176    1.488   .     S
C171   C172    1.393   .     A
C171   H186    1.079   .     S
C172   C173    1.404   .     A
C172   H182    1.084   .     S
C173   C174    1.401   .     A
C174   N175    1.365   .     A
C174   H183    1.083   .     S
C176   N177    1.360   .     A
C176   C181    1.414   .     A
N177   C178    1.357   .     A
C178   C179    1.398   .     A
C178   H184    1.080   .     S
C179   C180    1.390   .     A
C180   C181    1.399   .     A
C180   H185    1.077   .     S
C181   H187    1.080   .     S
C188   C189    1.410   .     A
C188   N193    1.358   .     A
C188   C194    1.486   .     S
C189   C190    1.404   .     A
C189   H204    1.078   .     S
C190   C191    1.402   1_554 S
C190   H200    1.085   1_554 S
C191   C190    1.402   1_556 S
C191   C192    1.403   1_556 D
C192   N193    1.357   .     A
C192   H201    1.083   .     S
C192   C191    1.403   1_554 D
C194   N195    1.367   .     A
C194   C199    1.401   .     A
N195   C196    1.367   .     A
C196   C197    1.400   .     A
C196   H202    1.084   .     S
C197   C198    1.408   .     A
C198   C199    1.394   .     A
C198   H203    1.080   .     S
C199   H205    1.078   .     S
H200   C190    1.085   1_556 S
C206   C207    1.408   .     A
C206   N211    1.363   .     A
C206   C212    1.493   .     S
C207   C208    1.403   .     A
C207   H222    1.078   .     S
C208   C209    1.402   .     A
C208   H218    1.085   .     S
C209   C210    1.401   .     A
C210   N211    1.360   .     A
C210   H219    1.081   .     S
C212   N213    1.359   .     A
C212   C217    1.413   .     A
N213   C214    1.355   .     A
C214   H220    1.082   .     S
C214   C215    1.405   1_455 A
C215   C216    1.403   .     A
C215   C214    1.405   1_655 A
C216   H221    1.086   .     S
C216   C217    1.409   1_655 A
C217   H223    1.079   .     S
C217   C216    1.409   1_455 A
C224   N229    1.362   .     A
C224   C225    1.408   1_655 A
C224   C230    1.485   1_655 S
C225   C226    1.401   .     A
C225   H240    1.079   .     S
C225   C224    1.408   1_455 A
C226   H236    1.083   .     S
C226   C227    1.400   1_455 A
C227   C228    1.396   .     A
C227   C226    1.400   1_655 A
C227   C42     1.467   1_565 S
C228   N229    1.357   .     A
C228   H237    1.081   .     S
C230   C235    1.408   .     A
C230   C224    1.485   1_455 S
C230   N231    1.360   1_455 A
N231   C230    1.360   1_655 A
N231   C232    1.356   1_655 A
C232   C233    1.404   .     A
C232   N231    1.356   1_455 A
C232   H238    1.081   1_455 S
C233   C234    1.403   .     A
C234   C235    1.401   .     A
C234   H239    1.083   .     S
C235   H241    1.080   .     S
H238   C232    1.081   1_655 S
C242   C243    1.416   .     A
C242   C248    1.487   .     S
C242   N247    1.354   1_655 A
C243   C244    1.419   .     A
C243   H258    1.082   .     S
C244   H254    1.082   .     S
C244   C245    1.408   1_655 A
C245   C246    1.400   .     A
C245   C244    1.408   1_455 A
C246   N247    1.345   .     A
C246   H255    1.079   .     S
N247   C242    1.354   1_455 A
C248   C253    1.405   .     A
C248   N249    1.362   1_655 A
N249   C248    1.362   1_455 A
N249   C250    1.350   1_455 A
C250   C251    1.391   .     A
C250   N249    1.350   1_655 A
C250   H256    1.084   1_655 S
C251   C252    1.409   .     A
C252   C253    1.410   .     A
C252   H257    1.083   .     S
C253   H259    1.079   .     S
H256   C250    1.084   1_455 S
C260   N265    1.365   .     A
C260   C266    1.491   .     S
C260   C261    1.407   1_554 A
C261   C262    1.386   .     A
C261   H276    1.079   .     S
C261   C260    1.407   1_556 A
C262   H272    1.084   .     S
C262   C263    1.396   1_556 A
C263   C264    1.405   .     A
C263   C262    1.396   1_554 A
C264   N265    1.367   .     A
C264   H273    1.082   .     S
C266   N267    1.371   .     A
C266   C271    1.400   1_554 A
N267   C268    1.372   .     A
C268   H274    1.083   .     S
C268   C269    1.403   1_554 A
C269   C270    1.395   .     A
C269   C268    1.403   1_556 A
C269   C2      1.470   1_655 S
C270   C271    1.377   .     A
C270   H275    1.084   .     S
C271   H277    1.077   .     S
C271   C266    1.400   1_556 A
C278   C279    1.408   .     A
C278   N283    1.365   .     A
C278   C284    1.492   .     S
C279   C280    1.389   .     A
C279   H294    1.077   .     S
C280   C281    1.395   .     A
C280   H290    1.084   .     S
C281   C282    1.403   .     A
C282   N283    1.366   .     A
C282   H291    1.081   .     S
C284   N285    1.367   .     A
C284   C289    1.405   .     A
N285   C286    1.367   .     A
C286   C287    1.401   .     A
C286   H292    1.083   .     S
C287   C288    1.396   .     A
C288   C289    1.385   .     A
C288   H293    1.082   .     S
C289   H295    1.079   .     S
