data_lcy+N123+E9
_audit_creation_date              2025-01-21
_audit_creation_method            'Materials Studio'
_symmetry_space_group_name_H-M    'P1'
_symmetry_Int_Tables_number       1
_symmetry_cell_setting            triclinic
loop_
_symmetry_equiv_pos_as_xyz
  x,y,z
_cell_length_a                    34.4803
_cell_length_b                    29.9856
_cell_length_c                    32.9617
_cell_angle_alpha                 92.9372
_cell_angle_beta                  102.2662
_cell_angle_gamma                 91.8598
loop_
_atom_site_label
_atom_site_type_symbol
_atom_site_fract_x
_atom_site_fract_y
_atom_site_fract_z
_atom_site_U_iso_or_equiv
_atom_site_adp_type
_atom_site_occupancy
Ce0    Ce    0.17281   0.61978   0.85256   0.00000  Uiso   1.00
Ce1    Ce    0.10492   0.64280   0.90354   0.00000  Uiso   1.00
C2     C     0.18074   0.68186   0.93177   0.00000  Uiso   1.00
C3     C     0.21883   0.59494   0.79869   0.00000  Uiso   1.00
C4     C     0.10032   0.68649   0.81391   0.00000  Uiso   1.00
C5     C     0.09952   0.57340   0.83052   0.00000  Uiso   1.00
C6     C     0.04600   0.65659   0.94384   0.00000  Uiso   1.00
C7     C     0.17480   0.57760   0.94537   0.00000  Uiso   1.00
O8     O     0.16084   0.66777   0.95467   0.00000  Uiso   1.00
O9     O     0.16005   0.67896   0.89162   0.00000  Uiso   1.00
O10    O     0.22346   0.63315   0.81836   0.00000  Uiso   1.00
O11    O     0.19296   0.56894   0.80862   0.00000  Uiso   1.00
O12    O     0.13272   0.66766   0.80885   0.00000  Uiso   1.00
O13    O     0.08273   0.67960   0.84429   0.00000  Uiso   1.00
O14    O     0.11520   0.59054   0.80567   0.00000  Uiso   1.00
O15    O     0.12126   0.58218   0.86959   0.00000  Uiso   1.00
O16    O     0.04886   0.62000   0.92346   0.00000  Uiso   1.00
O17    O     0.07348   0.68642   0.94413   0.00000  Uiso   1.00
O18    O     0.14354   0.59921   0.94912   0.00000  Uiso   1.00
O19    O     0.19143   0.57834   0.91302   0.00000  Uiso   1.00
Ce20   Ce    0.60054   0.90607   0.11241   0.00000  Uiso   1.00
Ce21   Ce    0.66043   0.83769   0.10054   0.00000  Uiso   1.00
C22    C     0.58385   0.81025   0.05997   0.00000  Uiso   1.00
C23    C     0.55201   0.96915   0.13089   0.00000  Uiso   1.00
C24    C     0.65751   0.92713   0.04820   0.00000  Uiso   1.00
C25    C     0.66085   0.93368   0.17500   0.00000  Uiso   1.00
C26    C     0.71782   0.78144   0.09154   0.00000  Uiso   1.00
C27    C     0.60381   0.81598   0.16466   0.00000  Uiso   1.00
O28    O     0.60985   0.78467   0.07056   0.00000  Uiso   1.00
O29    O     0.59887   0.85312   0.06268   0.00000  Uiso   1.00
O30    O     0.54156   0.94169   0.09908   0.00000  Uiso   1.00
O31    O     0.58693   0.96485   0.15252   0.00000  Uiso   1.00
O32    O     0.63164   0.94422   0.06753   0.00000  Uiso   1.00
O33    O     0.67222   0.88811   0.05438   0.00000  Uiso   1.00
O34    O     0.62944   0.95264   0.16731   0.00000  Uiso   1.00
O35    O     0.66266   0.89668   0.14777   0.00000  Uiso   1.00
O36    O     0.72132   0.80973   0.12232   0.00000  Uiso   1.00
O37    O     0.68418   0.77995   0.06624   0.00000  Uiso   1.00
O38    O     0.63398   0.80391   0.14977   0.00000  Uiso   1.00
O39    O     0.58487   0.85223   0.15557   0.00000  Uiso   1.00
Ce40   Ce    0.88982   0.13450   0.59076   0.00000  Uiso   1.00
Ce41   Ce    0.84101   0.11316   0.66066   0.00000  Uiso   1.00
C42    C     0.81817   0.06844   0.58328   0.00000  Uiso   1.00
C43    C     0.94034   0.15761   0.54220   0.00000  Uiso   1.00
C44    C     0.93023   0.07476   0.66938   0.00000  Uiso   1.00
C45    C     0.90865   0.18476   0.66568   0.00000  Uiso   1.00
C46    C     0.79899   0.09293   0.71785   0.00000  Uiso   1.00
C47    C     0.79816   0.16973   0.58113   0.00000  Uiso   1.00
O48    O     0.79497   0.08413   0.60219   0.00000  Uiso   1.00
O49    O     0.85624   0.07401   0.60569   0.00000  Uiso   1.00
O50    O     0.92301   0.11892   0.53865   0.00000  Uiso   1.00
O51    O     0.92963   0.18510   0.56800   0.00000  Uiso   1.00
O52    O     0.93482   0.09312   0.63560   0.00000  Uiso   1.00
O53    O     0.90004   0.08029   0.68668   0.00000  Uiso   1.00
O54    O     0.93297   0.16605   0.65061   0.00000  Uiso   1.00
O55    O     0.87130   0.17458   0.64312   0.00000  Uiso   1.00
O56    O     0.81382   0.13221   0.71616   0.00000  Uiso   1.00
O57    O     0.80490   0.06436   0.68995   0.00000  Uiso   1.00
O58    O     0.79433   0.15015   0.61462   0.00000  Uiso   1.00
O59    O     0.83040   0.17058   0.56614   0.00000  Uiso   1.00
Ce60   Ce    0.40444   0.41104   0.38806   0.00000  Uiso   1.00
Ce61   Ce    0.34110   0.34321   0.40203   0.00000  Uiso   1.00
C62    C     0.41855   0.32070   0.43201   0.00000  Uiso   1.00
C63    C     0.44763   0.47895   0.36583   0.00000  Uiso   1.00
C64    C     0.33992   0.44271   0.44352   0.00000  Uiso   1.00
C65    C     0.33965   0.42038   0.32669   0.00000  Uiso   1.00
C66    C     0.28423   0.28645   0.41604   0.00000  Uiso   1.00
C67    C     0.40020   0.31333   0.33813   0.00000  Uiso   1.00
O68    O     0.39253   0.29467   0.41247   0.00000  Uiso   1.00
O69    O     0.40467   0.36264   0.43838   0.00000  Uiso   1.00
O70    O     0.45973   0.45915   0.39930   0.00000  Uiso   1.00
O71    O     0.41408   0.46442   0.34443   0.00000  Uiso   1.00
O72    O     0.37176   0.45391   0.43067   0.00000  Uiso   1.00
O73    O     0.32068   0.40470   0.43389   0.00000  Uiso   1.00
O74    O     0.36599   0.44932   0.33718   0.00000  Uiso   1.00
O75    O     0.34873   0.38105   0.34640   0.00000  Uiso   1.00
O76    O     0.28188   0.30413   0.38117   0.00000  Uiso   1.00
O77    O     0.31652   0.29574   0.44287   0.00000  Uiso   1.00
O78    O     0.37178   0.30104   0.35666   0.00000  Uiso   1.00
O79    O     0.41888   0.35254   0.34463   0.00000  Uiso   1.00
C80    C     0.46378   0.77268   0.01807   0.00000  Uiso   1.00
N81    N     0.49211   0.74353   1.01348   0.00000  Uiso   1.00
N82    N     0.53055   0.75535   0.02667   0.00000  Uiso   1.00
C83    C     0.54190   0.79701   0.04415   0.00000  Uiso   1.00
N84    N     0.51358   0.82626   0.04821   0.00000  Uiso   1.00
N85    N     0.47521   0.81420   0.03572   0.00000  Uiso   1.00
C86    C     0.42143   0.75949   0.00505   0.00000  Uiso   1.00
N87    N     0.39471   0.77821   0.02488   0.00000  Uiso   1.00
N88    N     0.35622   0.76623   0.01344   0.00000  Uiso   1.00
C89    C     0.34299   0.73565   0.98128   0.00000  Uiso   1.00
N90    N     0.36967   0.71723   0.96115   0.00000  Uiso   1.00
N91    N     0.40827   0.72867   0.97305   0.00000  Uiso   1.00
C92    C     0.30055   0.72271   0.96846   0.00000  Uiso   1.00
N93    N     0.28479   0.70750   0.92870   0.00000  Uiso   1.00
N94    N     0.24636   0.69541   0.91702   0.00000  Uiso   1.00
C95    C     0.22241   0.69751   0.94477   0.00000  Uiso   1.00
N96    N     0.23814   0.71248   0.98463   0.00000  Uiso   1.00
N97    N     0.27649   0.72528   0.99616   0.00000  Uiso   1.00
C98    C     0.43336   0.21340   0.26077   0.00000  Uiso   1.00
N99    N     0.40948   0.20388   0.28721   0.00000  Uiso   1.00
N100   N     0.39898   0.23607   0.31142   0.00000  Uiso   1.00
C101   C     0.41235   0.27898   0.31057   0.00000  Uiso   1.00
N102   N     0.43634   0.28874   0.28412   0.00000  Uiso   1.00
N103   N     0.44661   0.25643   0.25951   0.00000  Uiso   1.00
C104   C     0.44621   0.17677   0.23622   0.00000  Uiso   1.00
N105   N     0.46326   0.18441   0.20348   0.00000  Uiso   1.00
N106   N     0.47638   0.15051   0.18299   0.00000  Uiso   1.00
C107   C     0.47312   0.10802   0.19484   0.00000  Uiso   1.00
N108   N     0.45599   0.10059   0.22741   0.00000  Uiso   1.00
N109   N     0.44254   0.13426   0.24752   0.00000  Uiso   1.00
C110   C     0.49068   0.07077   0.17570   0.00000  Uiso   1.00
N111   N     0.50040   0.03420   0.19762   0.00000  Uiso   1.00
N112   N     0.51843   1.00091   0.18218   0.00000  Uiso   1.00
C113   C     0.52656   1.00243   0.14381   0.00000  Uiso   1.00
N114   N     0.51667   0.03884   0.12155   0.00000  Uiso   1.00
N115   N     0.49899   0.07256   0.13727   0.00000  Uiso   1.00
C116   C     0.69075   0.22157   0.52355   0.00000  Uiso   1.00
N117   N     0.69293   0.17859   0.53434   0.00000  Uiso   1.00
N118   N     0.72757   0.16227   0.55146   0.00000  Uiso   1.00
C119   C     0.76165   0.18795   0.55784   0.00000  Uiso   1.00
N120   N     0.75983   0.23097   0.54664   0.00000  Uiso   1.00
N121   N     0.72488   0.24756   0.52985   0.00000  Uiso   1.00
C122   C     0.65145   0.23886   0.50663   0.00000  Uiso   1.00
N123   N     0.64523   0.28340   0.50632   0.00000  Uiso   1.00
N124   N     0.60863   0.29792   0.49358   0.00000  Uiso   1.00
C125   C     0.57707   0.26839   0.48060   0.00000  Uiso   1.00
N126   N     0.58354   0.22403   0.48054   0.00000  Uiso   1.00
N127   N     0.61990   0.20958   0.49346   0.00000  Uiso   1.00
C128   C     0.53618   0.28320   0.46767   0.00000  Uiso   1.00
N129   N     0.50632   0.25256   0.45162   0.00000  Uiso   1.00
N130   N     0.46898   0.26476   0.44053   0.00000  Uiso   1.00
C131   C     0.45989   0.30807   0.44541   0.00000  Uiso   1.00
N132   N     0.48966   0.33897   0.46142   0.00000  Uiso   1.00
N133   N     0.52719   0.32674   0.47238   0.00000  Uiso   1.00
C134   C     0.74513   0.05547   0.81368   0.00000  Uiso   1.00
N135   N     0.75503   0.09918   0.81050   0.00000  Uiso   1.00
N136   N     0.77139   0.11152   0.77937   0.00000  Uiso   1.00
C137   C     0.77819   0.08063   0.75030   0.00000  Uiso   1.00
N138   N     0.76775   0.03716   0.75325   0.00000  Uiso   1.00
N139   N     0.75163   0.02484   0.78436   0.00000  Uiso   1.00
C140   C     0.73010   0.04018   0.84919   0.00000  Uiso   1.00
N141   N     0.72902   0.99587   0.85518   0.00000  Uiso   1.00
N142   N     0.71697   0.98077   0.88777   0.00000  Uiso   1.00
C143   C     0.70514   1.00923   0.91557   0.00000  Uiso   1.00
N144   N     0.70587   0.05377   0.90965   0.00000  Uiso   1.00
N145   N     0.71836   0.06903   0.87702   0.00000  Uiso   1.00
C146   C     0.69357   0.99072   0.95174   0.00000  Uiso   1.00
N147   N     0.67117   0.01294   0.97488   0.00000  Uiso   1.00
N148   N     0.65977   0.99345   0.00630   0.00000  Uiso   1.00
C149   C     0.67078   0.95137   0.01569   0.00000  Uiso   1.00
N150   N     0.69339   0.92977  -0.00730   0.00000  Uiso   1.00
N151   N     0.70441   0.94894   0.96137   0.00000  Uiso   1.00
C152   C     0.78760   0.02313   0.45863   0.00000  Uiso   1.00
N153   N     0.82308   0.01304   0.48241   0.00000  Uiso   1.00
N154   N     0.83269   0.02660   0.52263   0.00000  Uiso   1.00
C155   C     0.80685   0.04996   0.54038   0.00000  Uiso   1.00
N156   N     0.77126   0.05940   0.51671   0.00000  Uiso   1.00
N157   N     0.76190   0.04640   0.47654   0.00000  Uiso   1.00
C158   C     0.77704   0.01123   0.41389   0.00000  Uiso   1.00
N159   N     0.75058   0.03599   0.38929   0.00000  Uiso   1.00
N160   N     0.73881   0.02499   0.34893   0.00000  Uiso   1.00
C161   C     0.75264   0.98855   0.33150   0.00000  Uiso   1.00
N162   N     0.77939   0.96366   0.35598   0.00000  Uiso   1.00
N163   N     0.79169   0.97510   0.39653   0.00000  Uiso   1.00
C164   C     0.73534   0.97539   0.28775   0.00000  Uiso   1.00
N165   N     0.73863   0.93372   0.27075   0.00000  Uiso   1.00
N166   N     0.71693   0.92068   0.23310   0.00000  Uiso   1.00
C167   C     0.69137   0.94898   0.21145   0.00000  Uiso   1.00
N168   N     0.68917   0.99080   0.22808   0.00000  Uiso   1.00
N169   N     0.71077   1.00378   0.26534   0.00000  Uiso   1.00
C170   C     0.30236   0.51396   0.53911   0.00000  Uiso   1.00
N171   N     0.33812   0.52495   0.53022   0.00000  Uiso   1.00
N172   N     0.34942   0.50455   0.49787   0.00000  Uiso   1.00
C173   C     0.32524   0.47264   0.47323   0.00000  Uiso   1.00
N174   N     0.28916   0.46283   0.48156   0.00000  Uiso   1.00
N175   N     0.27793   0.48310   0.51371   0.00000  Uiso   1.00
C176   C     0.29154   0.53027   0.57798   0.00000  Uiso   1.00
N177   N     0.25966   0.51075   0.58912   0.00000  Uiso   1.00
N178   N     0.25095   0.52162   0.62566   0.00000  Uiso   1.00
C179   C     0.27364   0.55263   0.65257   0.00000  Uiso   1.00
N180   N     0.30527   0.57294   0.64132   0.00000  Uiso   1.00
N181   N     0.31428   0.56167   0.60473   0.00000  Uiso   1.00
C182   C     0.26350   0.56270   0.69316   0.00000  Uiso   1.00
N183   N     0.27677   0.60099   0.71661   0.00000  Uiso   1.00
N184   N     0.26412   0.61081   0.75154   0.00000  Uiso   1.00
C185   C     0.23827   0.58234   0.76440   0.00000  Uiso   1.00
N186   N     0.22602   0.54368   0.74146   0.00000  Uiso   1.00
N187   N     0.23832   0.53410   0.70656   0.00000  Uiso   1.00
C188   C     0.21651   0.50953   0.05284   0.00000  Uiso   1.00
N189   N     0.18633   0.53763   0.04988   0.00000  Uiso   1.00
N190   N     0.17381   0.55851   1.01539   0.00000  Uiso   1.00
C191   C     0.19094   0.55268   0.98219   0.00000  Uiso   1.00
N192   N     0.22140   0.52448   0.98476   0.00000  Uiso   1.00
N193   N     0.23398   0.50318   0.01963   0.00000  Uiso   1.00
C194   C     0.23000   0.48906   0.09276   0.00000  Uiso   1.00
N195   N     0.25596   0.45561   0.09770   0.00000  Uiso   1.00
N196   N     0.26787   0.43900   0.13499   0.00000  Uiso   1.00
C197   C     0.25433   0.45536   0.16848   0.00000  Uiso   1.00
N198   N     0.22831   0.48851   0.16326   0.00000  Uiso   1.00
N199   N     0.21617   0.50470   0.12613   0.00000  Uiso   1.00
C200   C     0.27082   0.44188   0.21073   0.00000  Uiso   1.00
N201   N     0.27081   0.47085   0.24376   0.00000  Uiso   1.00
N202   N     0.29027   0.46230   0.28177   0.00000  Uiso   1.00
C203   C     0.30955   0.42378   0.28844   0.00000  Uiso   1.00
N204   N     0.30860   0.39411   0.25562   0.00000  Uiso   1.00
N205   N     0.28963   0.40299   0.21740   0.00000  Uiso   1.00
C206   C     0.18492   0.22460   0.44622   0.00000  Uiso   1.00
N207   N     0.21750   0.23727   0.47616   0.00000  Uiso   1.00
N208   N     0.24997   0.25475   0.46622   0.00000  Uiso   1.00
C209   C     0.25098   0.26062   0.42593   0.00000  Uiso   1.00
N210   N     0.21863   0.24738   0.39584   0.00000  Uiso   1.00
N211   N     0.18624   0.22941   0.40577   0.00000  Uiso   1.00
C212   C     0.14775   0.21119   0.45816   0.00000  Uiso   1.00
N213   N     0.11696   0.18983   0.43055   0.00000  Uiso   1.00
N214   N     0.08261   0.18057   0.44156   0.00000  Uiso   1.00
C215   C     0.07768   0.19314   0.48032   0.00000  Uiso   1.00
N216   N     0.10847   0.21442   0.50771   0.00000  Uiso   1.00
N217   N     0.14284   0.22305   0.49695   0.00000  Uiso   1.00
C218   C     0.03982   0.18526   0.49295   0.00000  Uiso   1.00
N219   N     0.03030   0.21289   0.52290   0.00000  Uiso   1.00
N220   N     0.99746   0.20499   0.53691   0.00000  Uiso   1.00
C221   C     0.97296   0.16891   0.52183   0.00000  Uiso   1.00
N222   N     0.98228   0.14122   0.49168   0.00000  Uiso   1.00
N223   N     0.01497   0.14950   0.47719   0.00000  Uiso   1.00
C224   C     0.99898   0.96834   0.71229   0.00000  Uiso   1.00
N225   N     1.00653   0.99044   0.67960   0.00000  Uiso   1.00
N226   N     0.98668   0.02668   0.66742   0.00000  Uiso   1.00
C227   C     0.95894   0.04227   0.68776   0.00000  Uiso   1.00
N228   N     0.95259   0.02097   0.72122   0.00000  Uiso   1.00
N229   N     0.97220   0.98483   0.73323   0.00000  Uiso   1.00
C230   C     1.01548   0.92466   0.72265   0.00000  Uiso   1.00
N231   N     0.99883   0.89910   0.74770   0.00000  Uiso   1.00
N232   N     1.01140   0.85851   0.75612   0.00000  Uiso   1.00
C233   C     1.04130   0.84168   0.74003   0.00000  Uiso   1.00
N234   N     1.05842   0.86728   0.71513   0.00000  Uiso   1.00
N235   N     1.04544   0.90796   0.70626   0.00000  Uiso   1.00
C236   C     0.05497   0.79714   0.75167   0.00000  Uiso   1.00
N237   N     0.09151   0.78341   0.74853   0.00000  Uiso   1.00
N238   N     0.10526   0.74587   0.76548   0.00000  Uiso   1.00
C239   C     0.08280   0.72066   0.78581   0.00000  Uiso   1.00
N240   N     0.04587   0.73377   0.78742   0.00000  Uiso   1.00
N241   N     0.03224   0.77107   0.77066   0.00000  Uiso   1.00
C242   C     0.01462   0.46848   0.79958   0.00000  Uiso   1.00
N243   N     0.01867   0.49820   0.77079   0.00000  Uiso   1.00
N244   N     0.04421   0.53346   0.78088   0.00000  Uiso   1.00
C245   C     0.06609   0.54047   0.82027   0.00000  Uiso   1.00
N246   N     0.06105   0.51152   0.84921   0.00000  Uiso   1.00
N247   N     0.03597   0.47608   0.83904   0.00000  Uiso   1.00
C248   C     0.99206   0.42578   0.78735   0.00000  Uiso   1.00
N249   N     1.00341   0.38899   0.80845   0.00000  Uiso   1.00
N250   N     0.98646   0.34888   0.79501   0.00000  Uiso   1.00
C251   C     0.95690   0.34426   0.76044   0.00000  Uiso   1.00
N252   N     0.94486   0.38120   0.73984   0.00000  Uiso   1.00
N253   N     0.96235   0.42122   0.75284   0.00000  Uiso   1.00
C254   C     0.94193   0.29973   0.74231   0.00000  Uiso   1.00
N255   N     0.90471   0.29379   0.71849   0.00000  Uiso   1.00
N256   N     0.89316   0.25526   0.69670   0.00000  Uiso   1.00
C257   C     0.91853   0.22152   0.69748   0.00000  Uiso   1.00
N258   N     0.95560   0.22714   0.72182   0.00000  Uiso   1.00
N259   N     0.96694   0.26543   0.74423   0.00000  Uiso   1.00
C260   C     0.81600   0.71970   0.06388   0.00000  Uiso   1.00
N261   N     0.81971   0.74716   0.09860   0.00000  Uiso   1.00
N262   N     0.78787   0.76482   0.10864   0.00000  Uiso   1.00
C263   C     0.75123   0.75580   0.08424   0.00000  Uiso   1.00
N264   N     0.74735   0.72757   0.04997   0.00000  Uiso   1.00
N265   N     0.77921   0.70965   0.04006   0.00000  Uiso   1.00
C266   C     0.85142   0.70570   0.04977   0.00000  Uiso   1.00
N267   N     0.84837   0.67517   0.01730   0.00000  Uiso   1.00
N268   N     0.88015   0.66558   1.00209   0.00000  Uiso   1.00
C269   C     0.91592   0.68663   1.01851   0.00000  Uiso   1.00
N270   N     0.91898   0.71705   1.05105   0.00000  Uiso   1.00
N271   N     0.88729   0.72635   0.06648   0.00000  Uiso   1.00
C272   C     0.95037   0.67792   1.00040   0.00000  Uiso   1.00
N273   N     0.98266   0.70671   1.00891   0.00000  Uiso   1.00
N274   N     0.01339   0.69982   0.99113   0.00000  Uiso   1.00
C275   C     0.01298   0.66369   0.96453   0.00000  Uiso   1.00
N276   N     0.98085   0.63468   0.95632   0.00000  Uiso   1.00
N277   N     0.94997   0.64179   0.97379   0.00000  Uiso   1.00
C278   C     0.56484   0.72356   0.23965   0.00000  Uiso   1.00
N279   N     0.59036   0.71240   0.21510   0.00000  Uiso   1.00
N280   N     0.60301   0.74242   0.19208   0.00000  Uiso   1.00
C281   C     0.59025   0.78472   0.19212   0.00000  Uiso   1.00
N282   N     0.56470   0.79622   0.21677   0.00000  Uiso   1.00
N283   N     0.55232   0.76612   0.24033   0.00000  Uiso   1.00
C284   C     0.54933   0.68848   0.26207   0.00000  Uiso   1.00
N285   N     0.53497   0.69773   0.29681   0.00000  Uiso   1.00
N286   N     0.52097   0.66471   0.31619   0.00000  Uiso   1.00
C287   C     0.52051   0.62155   0.30112   0.00000  Uiso   1.00
N288   N     0.53456   0.61264   0.26632   0.00000  Uiso   1.00
N289   N     0.54904   0.64537   0.24743   0.00000  Uiso   1.00
C290   C     0.50280   0.58471   0.31958   0.00000  Uiso   1.00
N291   N     0.48550   0.54915   0.29449   0.00000  Uiso   1.00
N292   N     0.46881   0.51520   0.30987   0.00000  Uiso   1.00
C293   C     0.46972   0.51486   0.35111   0.00000  Uiso   1.00
N294   N     0.48741   0.55016   0.37660   0.00000  Uiso   1.00
N295   N     0.50358   0.58472   0.36102   0.00000  Uiso   1.00
loop_
_geom_bond_atom_site_label_1
_geom_bond_atom_site_label_2
_geom_bond_distance
_geom_bond_site_symmetry_2
_ccdc_geom_bond_type
Ce0    O9      2.249   .     S
Ce0    O10     2.306   .     S
Ce0    O11     2.275   .     S
Ce0    O12     2.354   .     S
Ce0    O14     2.355   .     S
Ce0    O15     2.259   .     S
Ce0    O19     2.385   .     S
Ce1    O8      2.348   .     S
Ce1    O9      2.274   .     S
Ce1    O13     2.293   .     S
Ce1    O15     2.236   .     S
Ce1    O16     2.266   .     S
Ce1    O17     2.281   .     S
Ce1    O18     2.281   .     S
C2     O8      1.205   .     D
C2     O9      1.361   .     S
C2     C95     1.464   .     S
C3     O10     1.276   .     A
C3     O11     1.271   .     A
C3     C185    1.471   .     S
C4     O12     1.306   .     A
C4     O13     1.297   .     A
C4     C239    1.474   .     S
C5     O14     1.200   .     D
C5     O15     1.353   .     S
C5     C245    1.465   .     S
C6     O16     1.275   .     A
C6     O17     1.280   .     A
C6     C275    1.462   .     S
C7     O18     1.300   .     A
C7     O19     1.315   .     A
C7     C191    1.474   .     S
Ce20   O29     2.213   .     S
Ce20   O30     2.298   .     S
Ce20   O31     2.270   .     S
Ce20   O32     2.327   .     S
Ce20   O34     2.259   .     S
Ce20   O35     2.244   .     S
Ce20   O39     2.330   .     S
Ce21   O28     2.339   .     S
Ce21   O29     2.297   .     S
Ce21   O33     2.286   .     S
Ce21   O35     2.284   .     S
Ce21   O36     2.272   .     S
Ce21   O37     2.287   .     S
Ce21   O38     2.286   .     S
C22    O28     1.205   .     D
C22    O29     1.362   .     S
C22    C83     1.464   .     S
C23    O30     1.280   .     A
C23    O31     1.276   .     A
C23    C113    1.456   .     S
C24    O32     1.304   .     A
C24    O33     1.299   .     A
C24    C149    1.467   .     S
C25    O34     1.224   .     D
C25    O35     1.402   .     S
C25    C167    1.462   .     S
C26    O36     1.271   .     A
C26    O37     1.275   .     A
C26    C263    1.460   .     S
C27    O38     1.295   .     A
C27    O39     1.301   .     A
C27    C281    1.468   .     S
Ce40   O49     2.252   .     S
Ce40   O50     2.295   .     S
Ce40   O51     2.273   .     S
Ce40   O52     2.339   .     S
Ce40   O54     2.339   .     S
Ce40   O55     2.267   .     S
Ce40   O59     2.357   .     S
Ce41   O48     2.330   .     S
Ce41   O49     2.272   .     S
Ce41   O53     2.308   .     S
Ce41   O55     2.249   .     S
Ce41   O56     2.282   .     S
Ce41   O57     2.272   .     S
Ce41   O58     2.318   .     S
C42    O48     1.207   .     D
C42    O49     1.363   .     S
C42    C155    1.459   .     S
C43    O50     1.276   .     A
C43    O51     1.273   .     A
C43    C221    1.466   .     S
C44    O52     1.304   .     A
C44    O53     1.300   .     A
C44    C227    1.471   .     S
C45    O54     1.202   .     D
C45    O55     1.360   .     S
C45    C257    1.461   .     S
C46    O56     1.277   .     A
C46    O57     1.277   .     A
C46    C137    1.464   .     S
C47    O58     1.305   .     A
C47    O59     1.309   .     A
C47    C119    1.466   .     S
Ce60   O69     2.258   .     S
Ce60   O70     2.306   .     S
Ce60   O71     2.268   .     S
Ce60   O72     2.340   .     S
Ce60   O74     2.289   .     S
Ce60   O75     2.242   .     S
Ce60   O79     2.340   .     S
Ce61   O68     2.311   .     S
Ce61   O69     2.304   .     S
Ce61   O73     2.280   .     S
Ce61   O75     2.262   .     S
Ce61   O76     2.276   .     S
Ce61   O77     2.271   .     S
Ce61   O78     2.349   .     S
C62    O68     1.219   .     D
C62    O69     1.382   .     S
C62    C131    1.468   .     S
C63    O70     1.277   .     A
C63    O71     1.271   .     A
C63    C293    1.460   .     S
C64    O72     1.298   .     A
C64    O73     1.290   .     A
C64    C173    1.473   .     S
C65    O74     1.217   .     D
C65    O75     1.388   .     S
C65    C203    1.463   .     S
C66    O76     1.279   .     A
C66    O77     1.279   .     A
C66    C209    1.465   .     S
C67    O78     1.313   .     A
C67    O79     1.308   .     A
C67    C101    1.468   .     S
C80    N85     1.357   .     A
C80    C86     1.467   .     S
C80    N81     1.359   1_554 A
N81    C80     1.359   1_556 A
N81    N82     1.334   1_556 A
N82    C83     1.358   .     A
N82    N81     1.334   1_554 A
C83    N84     1.356   .     A
N84    N85     1.331   .     A
C86    N87     1.358   .     A
C86    N91     1.357   1_554 A
N87    N88     1.332   .     A
N88    C89     1.357   1_554 A
C89    N90     1.359   .     A
C89    C92     1.468   .     S
C89    N88     1.357   1_556 A
N90    N91     1.333   .     A
N91    C86     1.357   1_556 A
C92    N93     1.357   .     A
C92    N97     1.359   .     A
N93    N94     1.332   .     A
N94    C95     1.357   .     A
C95    N96     1.357   .     A
N96    N97     1.334   .     A
C98    N99     1.355   .     A
C98    N103    1.360   .     A
C98    C104    1.466   .     S
N99    N100    1.329   .     A
N100   C101    1.356   .     A
C101   N102    1.359   .     A
N102   N103    1.336   .     A
C104   N105    1.359   .     A
C104   N109    1.356   .     A
N105   N106    1.335   .     A
N106   C107    1.360   .     A
C107   N108    1.355   .     A
C107   C110    1.465   .     S
N108   N109    1.329   .     A
C110   N111    1.356   .     A
C110   N115    1.360   .     A
N111   N112    1.329   1_545 A
N112   C113    1.355   .     A
N112   N111    1.329   1_565 A
C113   N114    1.359   1_565 A
N114   N115    1.335   .     A
N114   C113    1.359   1_545 A
C116   N117    1.355   .     A
C116   N121    1.362   .     A
C116   C122    1.473   .     S
N117   N118    1.328   .     A
N118   C119    1.355   .     A
C119   N120    1.360   .     A
N120   N121    1.338   .     A
C122   N123    1.360   .     A
C122   N127    1.357   .     A
N123   N124    1.337   .     A
N124   C125    1.361   .     A
C125   N126    1.356   .     A
C125   C128    1.474   .     S
N126   N127    1.330   .     A
C128   N129    1.357   .     A
C128   N133    1.360   .     A
N129   N130    1.330   .     A
N130   C131    1.355   .     A
C131   N132    1.360   .     A
N132   N133    1.336   .     A
C134   N135    1.358   .     A
C134   N139    1.357   .     A
C134   C140    1.465   .     S
N135   N136    1.334   .     A
N136   C137    1.360   .     A
C137   N138    1.355   .     A
N138   N139    1.328   .     A
C140   N145    1.361   .     A
C140   N141    1.354   1_545 A
N141   N142    1.326   .     A
N141   C140    1.354   1_565 A
N142   C143    1.355   .     A
C143   C146    1.464   .     S
C143   N144    1.360   1_565 A
N144   N145    1.336   .     A
N144   C143    1.360   1_545 A
C146   N151    1.353   .     A
C146   N147    1.361   1_565 A
N147   C146    1.361   1_545 A
N147   N148    1.337   1_546 A
N148   C149    1.361   .     A
N148   N147    1.337   1_564 A
C149   N150    1.355   .     A
N150   N151    1.325   1_554 A
N151   N150    1.325   1_556 A
C152   N153    1.358   .     A
C152   N157    1.357   .     A
C152   C158    1.464   .     S
N153   N154    1.335   .     A
N154   C155    1.359   .     A
C155   N156    1.354   .     A
N156   N157    1.329   .     A
C158   N159    1.353   .     A
C158   N163    1.361   1_545 A
N159   N160    1.327   .     A
N160   C161    1.355   1_545 A
C161   N162    1.360   .     A
C161   C164    1.467   .     S
C161   N160    1.355   1_565 A
N162   N163    1.337   .     A
N163   C158    1.361   1_565 A
C164   N165    1.361   .     A
C164   N169    1.354   .     A
N165   N166    1.338   .     A
N166   C167    1.360   .     A
C167   N168    1.354   .     A
N168   N169    1.326   .     A
C170   N171    1.361   .     A
C170   N175    1.356   .     A
C170   C176    1.473   .     S
N171   N172    1.337   .     A
N172   C173    1.360   .     A
C173   N174    1.356   .     A
N174   N175    1.329   .     A
C176   N177    1.356   .     A
C176   N181    1.361   .     A
N177   N178    1.329   .     A
N178   C179    1.355   .     A
C179   N180    1.360   .     A
C179   C182    1.472   .     S
N180   N181    1.338   .     A
C182   N183    1.360   .     A
C182   N187    1.356   .     A
N183   N184    1.338   .     A
N184   C185    1.361   .     A
C185   N186    1.355   .     A
N186   N187    1.329   .     A
C188   N189    1.351   .     A
C188   N193    1.365   .     A
C188   C194    1.472   .     S
N189   N190    1.324   1_554 A
N190   C191    1.356   .     A
N190   N189    1.324   1_556 A
C191   N192    1.361   .     A
N192   N193    1.341   1_556 A
N193   N192    1.341   1_554 A
C194   N195    1.359   .     A
C194   N199    1.357   .     A
N195   N196    1.337   .     A
N196   C197    1.362   .     A
C197   N198    1.354   .     A
C197   C200    1.470   .     S
N198   N199    1.328   .     A
C200   N201    1.358   .     A
C200   N205    1.358   .     A
N201   N202    1.331   .     A
N202   C203    1.356   .     A
C203   N204    1.359   .     A
N204   N205    1.335   .     A
C206   N207    1.358   .     A
C206   N211    1.359   .     A
C206   C212    1.468   .     S
N207   N208    1.331   .     A
N208   C209    1.356   .     A
C209   N210    1.359   .     A
N210   N211    1.334   .     A
C212   N213    1.360   .     A
C212   N217    1.356   .     A
N213   N214    1.335   .     A
N214   C215    1.360   .     A
C215   N216    1.356   .     A
C215   C218    1.468   .     S
N216   N217    1.329   .     A
C218   N219    1.357   .     A
C218   N223    1.359   .     A
N219   N220    1.329   1_455 A
N220   C221    1.356   .     A
N220   N219    1.329   1_655 A
C221   N222    1.360   .     A
N222   N223    1.335   1_655 A
N223   N222    1.335   1_455 A
C224   N225    1.360   .     A
C224   N229    1.356   .     A
C224   C230    1.472   .     S
N225   N226    1.337   1_565 A
N226   C227    1.361   .     A
N226   N225    1.337   1_545 A
C227   N228    1.356   .     A
N228   N229    1.329   1_545 A
N229   N228    1.329   1_565 A
C230   N231    1.355   .     A
C230   N235    1.361   .     A
N231   N232    1.328   .     A
N232   C233    1.356   .     A
C233   N234    1.361   .     A
C233   C236    1.473   1_655 S
N234   N235    1.338   .     A
C236   N237    1.361   .     A
C236   N241    1.355   .     A
C236   C233    1.473   1_455 S
N237   N238    1.338   .     A
N238   C239    1.362   .     A
C239   N240    1.356   .     A
N240   N241    1.328   .     A
C242   N243    1.360   .     A
C242   N247    1.355   .     A
C242   C248    1.468   1_455 S
N243   N244    1.335   .     A
N244   C245    1.358   .     A
C245   N246    1.356   .     A
N246   N247    1.330   .     A
C248   N249    1.358   .     A
C248   N253    1.357   .     A
C248   C242    1.468   1_655 S
N249   N250    1.332   .     A
N250   C251    1.356   .     A
C251   N252    1.359   .     A
C251   C254    1.466   .     S
N252   N253    1.333   .     A
C254   N255    1.356   .     A
C254   N259    1.359   .     A
N255   N256    1.331   .     A
N256   C257    1.357   .     A
C257   N258    1.357   .     A
N258   N259    1.333   .     A
C260   N261    1.356   .     A
C260   N265    1.358   .     A
C260   C266    1.462   .     S
N261   N262    1.330   .     A
N262   C263    1.356   .     A
C263   N264    1.357   .     A
N264   N265    1.332   .     A
C266   N267    1.357   .     A
C266   N271    1.357   .     A
N267   N268    1.332   1_554 A
N268   C269    1.358   .     A
N268   N267    1.332   1_556 A
C269   N270    1.356   .     A
C269   C272    1.463   .     S
N270   N271    1.331   1_556 A
N271   N270    1.331   1_554 A
C272   N273    1.358   .     A
C272   N277    1.356   .     A
N273   N274    1.332   1_655 A
N274   C275    1.356   .     A
N274   N273    1.332   1_455 A
C275   N276    1.358   1_455 A
N276   N277    1.331   .     A
N276   C275    1.358   1_655 A
C278   N279    1.354   .     A
C278   N283    1.361   .     A
C278   C284    1.466   .     S
N279   N280    1.327   .     A
N280   C281    1.356   .     A
C281   N282    1.360   .     A
N282   N283    1.337   .     A
C284   N285    1.360   .     A
C284   N289    1.355   .     A
N285   N286    1.337   .     A
N286   C287    1.360   .     A
C287   N288    1.355   .     A
C287   C290    1.465   .     S
N288   N289    1.328   .     A
C290   N291    1.355   .     A
C290   N295    1.360   .     A
N291   N292    1.328   .     A
N292   C293    1.354   .     A
C293   N294    1.359   .     A
N294   N295    1.337   .     A
