data_lcy+N106+E191
_audit_creation_date              2025-01-21
_audit_creation_method            'Materials Studio'
_symmetry_space_group_name_H-M    'P1'
_symmetry_Int_Tables_number       1
_symmetry_cell_setting            triclinic
loop_
_symmetry_equiv_pos_as_xyz
  x,y,z
_cell_length_a                    29.2779
_cell_length_b                    28.7550
_cell_length_c                    30.2670
_cell_angle_alpha                 99.3508
_cell_angle_beta                  98.1272
_cell_angle_gamma                 90.7596
loop_
_atom_site_label
_atom_site_type_symbol
_atom_site_fract_x
_atom_site_fract_y
_atom_site_fract_z
_atom_site_U_iso_or_equiv
_atom_site_adp_type
_atom_site_occupancy
Y0     Y     0.12241   0.63987   0.81485   0.00000  Uiso   1.00
Y1     Y     0.16065   0.57765   0.88781   0.00000  Uiso   1.00
O2     O     0.15598   0.58258   0.77305   0.00000  Uiso   1.00
O3     O     0.11230   0.56197   0.82115   0.00000  Uiso   1.00
C4     C     0.20364   0.53919   0.95725   0.00000  Uiso   1.00
O5     O     0.08982   0.54330   0.88045   0.00000  Uiso   1.00
O6     O     0.11709   0.71321   0.79940   0.00000  Uiso   1.00
O7     O     0.07688   0.66054   0.75383   0.00000  Uiso   1.00
O8     O     0.20312   0.55778   0.82979   0.00000  Uiso   1.00
O9     O     0.17296   0.65331   0.88014   0.00000  Uiso   1.00
O10    O     0.19710   0.66270   0.81879   0.00000  Uiso   1.00
O11    O     0.07124   0.64823   0.86392   0.00000  Uiso   1.00
C12    C     0.19059   0.55926   0.78738   0.00000  Uiso   1.00
O13    O     0.11203   0.62517   0.92445   0.00000  Uiso   1.00
C14    C     0.07811   0.54273   0.84037   0.00000  Uiso   1.00
O15    O     0.18035   0.51538   0.92250   0.00000  Uiso   1.00
O16    O     0.20782   0.58222   0.95418   0.00000  Uiso   1.00
C17    C     0.08869   0.70396   0.76368   0.00000  Uiso   1.00
C18    C     0.07567   0.64227   0.90525   0.00000  Uiso   1.00
C19    C     0.20962   0.66287   0.85855   0.00000  Uiso   1.00
Y20    Y     0.67345   0.82710   0.09921   0.00000  Uiso   1.00
Y21    Y     0.60298   0.90580   0.12808   0.00000  Uiso   1.00
O22    O     0.63000   0.78924   0.13801   0.00000  Uiso   1.00
O23    O     0.59454   0.83158   0.08819   0.00000  Uiso   1.00
C24    C     0.56416   0.98316   0.16807   0.00000  Uiso   1.00
O25    O     0.56140   0.88740   0.05844   0.00000  Uiso   1.00
O26    O     0.74721   0.80884   0.09780   0.00000  Uiso   1.00
O27    O     0.69736   0.75969   0.05946   0.00000  Uiso   1.00
O28    O     0.59776   0.85199   0.17552   0.00000  Uiso   1.00
O29    O     0.68000   0.89906   0.14369   0.00000  Uiso   1.00
O30    O     0.70464   0.83961   0.17267   0.00000  Uiso   1.00
O31    O     0.67040   0.87259   0.04550   0.00000  Uiso   1.00
C32    C     0.60836   0.80815   0.17012   0.00000  Uiso   1.00
O33    O     0.63794   0.93755   0.07724   0.00000  Uiso   1.00
C34    C     0.56724   0.84532   0.05183   0.00000  Uiso   1.00
O35    O     0.54098   0.94769   0.14529   0.00000  Uiso   1.00
O36    O     0.60696   0.97705   0.17236   0.00000  Uiso   1.00
C37    C     0.73999   0.76971   0.07207   0.00000  Uiso   1.00
C38    C     0.65789   0.91501   0.04558   0.00000  Uiso   1.00
C39    C     0.69697   0.88089   0.18207   0.00000  Uiso   1.00
Y40    Y     0.80628   0.10306   0.66981   0.00000  Uiso   1.00
Y41    Y     0.88095   0.14165   0.61794   0.00000  Uiso   1.00
O42    O     0.76455   0.15083   0.63064   0.00000  Uiso   1.00
O43    O     0.81040   0.10457   0.59456   0.00000  Uiso   1.00
C44    C     0.94736   0.18795   0.58675   0.00000  Uiso   1.00
O45    O     0.86954   0.07549   0.56691   0.00000  Uiso   1.00
O46    O     0.76905   0.10507   0.72988   0.00000  Uiso   1.00
O47    O     0.75735   0.04460   0.68029   0.00000  Uiso   1.00
O48    O     0.82337   0.19525   0.61699   0.00000  Uiso   1.00
O49    O     0.87638   0.14054   0.69107   0.00000  Uiso   1.00
O50    O     0.81871   0.17365   0.71617   0.00000  Uiso   1.00
O51    O     0.85785   0.04598   0.66482   0.00000  Uiso   1.00
C52    C     0.78018   0.18845   0.61941   0.00000  Uiso   1.00
O53    O     0.91923   0.08357   0.64802   0.00000  Uiso   1.00
C54    C     0.82805   0.07084   0.56406   0.00000  Uiso   1.00
O55    O     0.91717   0.16016   0.56182   0.00000  Uiso   1.00
O56    O     0.94196   0.19349   0.62785   0.00000  Uiso   1.00
C57    C     0.74910   0.06519   0.71839   0.00000  Uiso   1.00
C58    C     0.90004   0.04705   0.65816   0.00000  Uiso   1.00
C59    C     0.85909   0.17988   0.71408   0.00000  Uiso   1.00
Y60    Y     0.41372   0.44066   0.37912   0.00000  Uiso   1.00
Y61    Y     0.34422   0.36461   0.39986   0.00000  Uiso   1.00
O62    O     0.46259   0.40293   0.42301   0.00000  Uiso   1.00
O63    O     0.40929   0.35987   0.36753   0.00000  Uiso   1.00
C64    C     0.28349   0.32278   0.44181   0.00000  Uiso   1.00
O65    O     0.34885   0.32014   0.33217   0.00000  Uiso   1.00
O66    O     0.42939   0.51612   0.37560   0.00000  Uiso   1.00
O67    O     0.47157   0.46561   0.34518   0.00000  Uiso   1.00
O68    O     0.41063   0.36023   0.44971   0.00000  Uiso   1.00
O69    O     0.34919   0.44367   0.41215   0.00000  Uiso   1.00
O70    O     0.41152   0.47449   0.45174   0.00000  Uiso   1.00
O71    O     0.35752   0.43148   0.31978   0.00000  Uiso   1.00
C72    C     0.45229   0.37610   0.45036   0.00000  Uiso   1.00
O73    O     0.29966   0.40128   0.34922   0.00000  Uiso   1.00
C74    C     0.38861   0.32999   0.32942   0.00000  Uiso   1.00
O75    O     0.29270   0.30612   0.40299   0.00000  Uiso   1.00
O76    O     0.30734   0.35956   0.45944   0.00000  Uiso   1.00
C77    C     0.46302   0.50885   0.35409   0.00000  Uiso   1.00
C78    C     0.31494   0.42008   0.31822   0.00000  Uiso   1.00
C79    C     0.37173   0.46458   0.45368   0.00000  Uiso   1.00
Ni80   Ni    0.40492   0.73114   0.94190   0.00000  Uiso   1.00
C81    C     0.53733   0.81289   0.01619   0.00000  Uiso   1.00
C82    C     0.52941   0.76603   0.02168   0.00000  Uiso   1.00
C83    C     0.49076   0.74017  -0.00351   0.00000  Uiso   1.00
C84    C     0.47074   0.80390   0.95768   0.00000  Uiso   1.00
C85    C     0.50864   0.83107  -0.01767   0.00000  Uiso   1.00
H86    H     0.24433   0.68193   0.94892   0.00000  Uiso   1.00
H87    H     0.28425   0.66971   0.81560   0.00000  Uiso   1.00
H88    H     0.36322   0.69653   0.85081   0.00000  Uiso   1.00
H89    H     0.32463   0.70890   0.98149   0.00000  Uiso   1.00
N90    N     0.34764   0.70362   0.91766   0.00000  Uiso   1.00
N91    N     0.46155   0.76009  -0.03359   0.00000  Uiso   1.00
H92    H     0.55048   0.75093   0.04776   0.00000  Uiso   1.00
H93    H     0.48260   0.70525   0.00284   0.00000  Uiso   1.00
H94    H     0.44681   0.81891   0.93369   0.00000  Uiso   1.00
H95    H     0.51355   0.86708   0.97710   0.00000  Uiso   1.00
C96    C     0.25791   0.67409   0.87970   0.00000  Uiso   1.00
C97    C     0.29226   0.67743   0.85217   0.00000  Uiso   1.00
C98    C     0.33711   0.69234   0.87195   0.00000  Uiso   1.00
C99    C     0.31544   0.69917   0.94523   0.00000  Uiso   1.00
C100   C     0.27001   0.68410   0.92679   0.00000  Uiso   1.00
Ni101  Ni    0.48381   0.17306   0.23014   0.00000  Uiso   1.00
C102   C     0.41395   0.30251   0.29592   0.00000  Uiso   1.00
C103   C     0.38959   0.27110   0.25964   0.00000  Uiso   1.00
C104   C     0.41273   0.23459   0.23699   0.00000  Uiso   1.00
C105   C     0.48378   0.26210   0.28212   0.00000  Uiso   1.00
C106   C     0.46201   0.29942   0.30553   0.00000  Uiso   1.00
H107   H     0.47334   1.00663   0.15729   0.00000  Uiso   1.00
H108   H     0.60994   0.06259   0.21646   0.00000  Uiso   1.00
H109   H     0.57640   0.13958   0.23934   0.00000  Uiso   1.00
H110   H     0.44270   0.08486   0.18185   0.00000  Uiso   1.00
N111   N     0.50821   0.11577   0.21123   0.00000  Uiso   1.00
N112   N     0.45851   0.22960   0.24994   0.00000  Uiso   1.00
H113   H     0.35246   0.27239   0.25137   0.00000  Uiso   1.00
H114   H     0.39349   0.20810   0.21140   0.00000  Uiso   1.00
H115   H     0.52015   0.25712   0.29189   0.00000  Uiso   1.00
H116   H     0.48187   0.32286   0.33349   0.00000  Uiso   1.00
C117   C     0.54413   1.02823   0.18532   0.00000  Uiso   1.00
C118   C     0.57308   0.06635   0.20866   0.00000  Uiso   1.00
C119   C     0.55428   0.11008   0.22137   0.00000  Uiso   1.00
C120   C     0.47929   0.07936   0.18907   0.00000  Uiso   1.00
C121   C     0.49665   0.03503   0.17563   0.00000  Uiso   1.00
Ni122  Ni    0.62101   0.30198   0.55278   0.00000  Uiso   1.00
C123   C     0.74606   0.22334   0.60802   0.00000  Uiso   1.00
C124   C     0.70536   0.22521   0.62771   0.00000  Uiso   1.00
C125   C     0.66925   0.25176   0.61188   0.00000  Uiso   1.00
C126   C     0.71318   0.27690   0.55939   0.00000  Uiso   1.00
C127   C     0.75063   0.25086   0.57454   0.00000  Uiso   1.00
H128   H     0.45536   0.29906   0.49384   0.00000  Uiso   1.00
H129   H     0.53769   0.41866   0.47556   0.00000  Uiso   1.00
H130   H     0.60528   0.38695   0.51706   0.00000  Uiso   1.00
H131   H     0.52536   0.26999   0.53518   0.00000  Uiso   1.00
N132   N     0.56828   0.32720   0.52770   0.00000  Uiso   1.00
N133   N     0.67328   0.27578   0.57757   0.00000  Uiso   1.00
H134   H     0.70079   0.20483   0.65399   0.00000  Uiso   1.00
H135   H     0.63702   0.25162   0.62547   0.00000  Uiso   1.00
H136   H     0.71523   0.29637   0.53196   0.00000  Uiso   1.00
H137   H     0.78153   0.25010   0.55857   0.00000  Uiso   1.00
C138   C     0.49094   0.36111   0.48110   0.00000  Uiso   1.00
C139   C     0.53362   0.38628   0.48878   0.00000  Uiso   1.00
C140   C     0.57202   0.36857   0.51228   0.00000  Uiso   1.00
C141   C     0.52711   0.30296   0.52252   0.00000  Uiso   1.00
C142   C     0.48755   0.31955   0.49930   0.00000  Uiso   1.00
Ni143  Ni    0.68215   0.99186   0.87377   0.00000  Uiso   1.00
C144   C     0.72214   0.04500   0.74875   0.00000  Uiso   1.00
C145   C     0.72347   0.99685   0.75140   0.00000  Uiso   1.00
C146   C     0.70790   0.98077   0.78810   0.00000  Uiso   1.00
C147   C     0.68638   0.05773   0.81695   0.00000  Uiso   1.00
C148   C     0.70200   0.07536   0.78120   0.00000  Uiso   1.00
H149   H     0.71429   0.88527  -0.01671   0.00000  Uiso   1.00
H150   H     0.61924  -0.00539   0.01793   0.00000  Uiso   1.00
H151   H     0.62890   0.02435   0.94726   0.00000  Uiso   1.00
H152   H     0.72149   0.91710   0.91403   0.00000  Uiso   1.00
N153   N     0.67512   0.97158   0.92719   0.00000  Uiso   1.00
N154   N     0.69098   1.01148   0.82049   0.00000  Uiso   1.00
H155   H     0.73987   0.97278   0.72763   0.00000  Uiso   1.00
H156   H     0.71203   0.94434   0.79230   0.00000  Uiso   1.00
H157   H     0.67319   0.08142   0.84339   0.00000  Uiso   1.00
H158   H     0.70082   0.11285   0.78039   0.00000  Uiso   1.00
C159   C     0.66594   0.93731   0.00639   0.00000  Uiso   1.00
C160   C     0.64228   0.97728  -0.00402   0.00000  Uiso   1.00
C161   C     0.64741   0.99397   0.95583   0.00000  Uiso   1.00
C162   C     0.69927   0.93376   0.93716   0.00000  Uiso   1.00
C163   C     0.69517   0.91597  -0.02342   0.00000  Uiso   1.00
Ni164  Ni    0.73495   0.97861   0.37802   0.00000  Uiso   1.00
C165   C     0.80167   0.04772   0.52087   0.00000  Uiso   1.00
C166   C     0.76293   1.01733   0.51715   0.00000  Uiso   1.00
C167   C     0.74095   0.99692   0.47368   0.00000  Uiso   1.00
C168   C     0.79255   0.03897   0.43939   0.00000  Uiso   1.00
C169   C     0.81569   0.05908   0.48138   0.00000  Uiso   1.00
H170   H     0.71719   0.84167   0.25771   0.00000  Uiso   1.00
H171   H     0.69203   0.97593   0.21396   0.00000  Uiso   1.00
H172   H     0.70460   0.01396   0.29453   0.00000  Uiso   1.00
H173   H     0.72942   0.88239   0.33655   0.00000  Uiso   1.00
N174   N     0.71639   0.94969   0.31920   0.00000  Uiso   1.00
N175   N     0.75664   1.00788   0.43608   0.00000  Uiso   1.00
H176   H     0.75064   1.00883   0.54710   0.00000  Uiso   1.00
H177   H     0.71200   0.97213   0.47005   0.00000  Uiso   1.00
H178   H     0.80375   0.04732   0.40892   0.00000  Uiso   1.00
H179   H     0.84435   0.08384   0.48300   0.00000  Uiso   1.00
C180   C     0.70360   0.90574   0.22935   0.00000  Uiso   1.00
C181   C     0.69932   0.95457   0.24024   0.00000  Uiso   1.00
C182   C     0.70609   0.97608   0.28582   0.00000  Uiso   1.00
C183   C     0.72002   0.90228   0.30943   0.00000  Uiso   1.00
C184   C     0.71368   0.87950   0.26464   0.00000  Uiso   1.00
Ni185  Ni    0.28825   0.49264   0.62836   0.00000  Uiso   1.00
C186   C     0.35116   0.47296   0.49579   0.00000  Uiso   1.00
C187   C     0.30410   0.46302   0.49526   0.00000  Uiso   1.00
C188   C     0.28610   0.46833   0.53602   0.00000  Uiso   1.00
C189   C     0.35952   0.49403   0.57730   0.00000  Uiso   1.00
C190   C     0.37901   0.48893   0.53737   0.00000  Uiso   1.00
H191   H     0.15352   0.51222   0.70548   0.00000  Uiso   1.00
H192   H     0.28424   0.55030   0.79049   0.00000  Uiso   1.00
H193   H     0.32369   0.52227   0.72421   0.00000  Uiso   1.00
H194   H     0.19541   0.48511   0.64164   0.00000  Uiso   1.00
N195   N     0.26115   0.50268   0.68004   0.00000  Uiso   1.00
N196   N     0.31393   0.48347   0.57585   0.00000  Uiso   1.00
H197   H     0.28162   0.45074   0.46379   0.00000  Uiso   1.00
H198   H     0.24983   0.46059   0.53602   0.00000  Uiso   1.00
H199   H     0.38064   0.50653   0.60949   0.00000  Uiso   1.00
H200   H     0.41552   0.49689   0.53904   0.00000  Uiso   1.00
C201   C     0.21578   0.53377   0.75285   0.00000  Uiso   1.00
C202   C     0.26416   0.53475   0.75853   0.00000  Uiso   1.00
C203   C     0.28648   0.51914   0.72109   0.00000  Uiso   1.00
C204   C     0.21447   0.49832   0.67473   0.00000  Uiso   1.00
C205   C     0.19092   0.51380   0.71084   0.00000  Uiso   1.00
Ni206  Ni    0.24415   0.47122   0.13816   0.00000  Uiso   1.00
C207   C     0.21979   0.52010   0.99893   0.00000  Uiso   1.00
C208   C     0.24160   0.55022   0.03751   0.00000  Uiso   1.00
C209   C     0.24946   0.53400   0.07888   0.00000  Uiso   1.00
C210   C     0.21641   0.45875   0.04478   0.00000  Uiso   1.00
C211   C     0.20788   0.47353   1.00262   0.00000  Uiso   1.00
H212   H     0.29086   0.50613   0.30177   0.00000  Uiso   1.00
H213   H     0.27503   0.35851   0.24428   0.00000  Uiso   1.00
H214   H     0.24705   0.38098   0.16976   0.00000  Uiso   1.00
H215   H     0.26260   0.52559   0.22650   0.00000  Uiso   1.00
N216   N     0.25321   0.45428   0.19486   0.00000  Uiso   1.00
N217   N     0.23612   0.48930   0.08192   0.00000  Uiso   1.00
H218   H     0.25078   0.58654   0.03615   0.00000  Uiso   1.00
H219   H     0.26502   0.55754   0.10899   0.00000  Uiso   1.00
H220   H     0.20610   0.42339   0.04815   0.00000  Uiso   1.00
H221   H     0.19047   0.44944   0.97369   0.00000  Uiso   1.00
C222   C     0.28383   0.43074   0.27905   0.00000  Uiso   1.00
C223   C     0.27017   0.39529   0.24167   0.00000  Uiso   1.00
C224   C     0.25480   0.40797   0.19941   0.00000  Uiso   1.00
C225   C     0.26354   0.48911   0.23124   0.00000  Uiso   1.00
C226   C     0.27913   0.47803   0.27386   0.00000  Uiso   1.00
Ni227  Ni    0.11714   0.25862   0.51911   0.00000  Uiso   1.00
C228   C     0.24651   0.30385   0.46308   0.00000  Uiso   1.00
C229   C     0.21938   0.26403   0.44092   0.00000  Uiso   1.00
C230   C     0.18104   0.25036   0.45919   0.00000  Uiso   1.00
C231   C     0.19647   0.31342   0.52094   0.00000  Uiso   1.00
C232   C     0.23522   0.32817   0.50400   0.00000  Uiso   1.00
H233   H     0.97110   0.16811   0.50232   0.00000  Uiso   1.00
H234   H     1.01210   0.25493   0.63286   0.00000  Uiso   1.00
H235   H     0.08113   0.28257   0.60433   0.00000  Uiso   1.00
H236   H     0.04074   0.19737   0.47684   0.00000  Uiso   1.00
N237   N     0.06404   0.24110   0.53935   0.00000  Uiso   1.00
N238   N     0.17001   0.27551   0.49810   0.00000  Uiso   1.00
H239   H     0.22701   0.24442   0.40928   0.00000  Uiso   1.00
H240   H     0.15946   0.22018   0.44188   0.00000  Uiso   1.00
H241   H     0.18695   0.33272   0.55186   0.00000  Uiso   1.00
H242   H     0.25533   0.35910   0.52203   0.00000  Uiso   1.00
C243   C     0.98614   0.20920   0.56975   0.00000  Uiso   1.00
C244   C     1.01736   0.24217   0.59834   0.00000  Uiso   1.00
C245   C     0.05644   0.25781   0.58230   0.00000  Uiso   1.00
C246   C     0.03369   0.21012   0.51073   0.00000  Uiso   1.00
C247   C     0.99424   0.19375   0.52524   0.00000  Uiso   1.00
Ni248  Ni    1.00352   0.86886   0.68474   0.00000  Uiso   1.00
C249   C     0.92637   0.00381   0.66191   0.00000  Uiso   1.00
C250   C     0.97438   0.00308   0.66211   0.00000  Uiso   1.00
C251   C     0.99745   0.96131   0.66696   0.00000  Uiso   1.00
C252   C     0.92688   0.92113   0.66922   0.00000  Uiso   1.00
C253   C     0.90267   0.96185   0.66491   0.00000  Uiso   1.00
H254   H     0.12250   0.79380   0.77528   0.00000  Uiso   1.00
H255   H     1.01404   0.69970   0.69584   0.00000  Uiso   1.00
H256   H     0.98081   0.76806   0.66370   0.00000  Uiso   1.00
H257   H     0.08741   0.85924   0.74141   0.00000  Uiso   1.00
N258   N     0.03307   0.81653   0.70059   0.00000  Uiso   1.00
N259   N     0.97340   0.92164   0.67082   0.00000  Uiso   1.00
H260   H     0.99394   0.03454   0.65961   0.00000  Uiso   1.00
H261   H     0.03462   0.96089   0.66888   0.00000  Uiso   1.00
H262   H     0.90875   0.88927   0.67286   0.00000  Uiso   1.00
H263   H     0.86563   0.96047   0.66435   0.00000  Uiso   1.00
C264   C     0.07103   0.74131   0.73822   0.00000  Uiso   1.00
C265   C     1.03146   0.73409   0.70549   0.00000  Uiso   1.00
C266   C     1.01269   0.77265   0.68711   0.00000  Uiso   1.00
C267   C     0.07246   0.82387   0.73069   0.00000  Uiso   1.00
C268   C     0.09207   0.78669   0.75001   0.00000  Uiso   1.00
Ni269  Ni    0.95579   0.37318   0.76583   0.00000  Uiso   1.00
C270   C     0.03886   0.51250   0.81540   0.00000  Uiso   1.00
C271   C     0.00435   0.49895   0.83903   0.00000  Uiso   1.00
C272   C    -0.02309   0.45848   0.82111   0.00000  Uiso   1.00
C273   C     0.01392   0.44691   0.75555   0.00000  Uiso   1.00
C274   C     0.04193   0.48761   0.77205   0.00000  Uiso   1.00
H275   H     0.82287   0.26307   0.74597   0.00000  Uiso   1.00
H276   H     0.95156   0.20052   0.71884   0.00000  Uiso   1.00
H277   H     0.98930   0.28033   0.73827   0.00000  Uiso   1.00
H278   H     0.86339   0.34094   0.76509   0.00000  Uiso   1.00
N279   N     0.92784   0.31403   0.75190   0.00000  Uiso   1.00
N280   N    -0.01644   0.43240   0.78108   0.00000  Uiso   1.00
H281   H     0.00113   0.51733   0.87260   0.00000  Uiso   1.00
H282   H     0.95233   0.44601   0.84051   0.00000  Uiso   1.00
H283   H     0.01824   0.42535   0.72372   0.00000  Uiso   1.00
H284   H     0.06842   0.49685   0.75300   0.00000  Uiso   1.00
C285   C     0.88414   0.22553   0.73074   0.00000  Uiso   1.00
C286   C     0.93151   0.23070   0.72909   0.00000  Uiso   1.00
C287   C     0.95288   0.27573   0.73982   0.00000  Uiso   1.00
C288   C     0.88223   0.30979   0.75497   0.00000  Uiso   1.00
C289   C     0.85956   0.26562   0.74455   0.00000  Uiso   1.00
Ni290  Ni    0.90593   0.68117   0.99964   0.00000  Uiso   1.00
C291   C     0.77842   0.74072   0.05826   0.00000  Uiso   1.00
C292   C     0.82315   0.75207   0.08159   0.00000  Uiso   1.00
C293   C     0.86084   0.73032   0.06494   0.00000  Uiso   1.00
C294   C     0.81143   0.68427   1.00435   0.00000  Uiso   1.00
C295   C     0.77243   0.70500   1.02017   0.00000  Uiso   1.00
H296   H     0.06891   0.63884   0.99503   0.00000  Uiso   1.00
H297   H     0.99032   0.66755   0.87084   0.00000  Uiso   1.00
H298   H     0.92261   0.67986   0.90997   0.00000  Uiso   1.00
H299   H    -0.00128   0.65272   0.03178   0.00000  Uiso   1.00
N300   N     0.95738   0.66627   0.97228   0.00000  Uiso   1.00
N301   N     0.85453   0.69820   1.02628   0.00000  Uiso   1.00
H302   H     0.82916   0.77901   0.11147   0.00000  Uiso   1.00
H303   H     0.89550   0.74088   0.08144   0.00000  Uiso   1.00
H304   H     0.80748   0.65878   0.97343   0.00000  Uiso   1.00
H305   H     0.73841   0.69509   1.00154   0.00000  Uiso   1.00
C306   C     0.03568   0.65270   0.92990   0.00000  Uiso   1.00
C307   C     0.99360   0.66412   0.90622   0.00000  Uiso   1.00
C308   C     0.95484   0.67061   0.92807   0.00000  Uiso   1.00
C309   C     0.99750   0.65529   0.99639   0.00000  Uiso   1.00
C310   C     0.03734   0.64804   0.97563   0.00000  Uiso   1.00
Ni311  Ni    0.54915   0.66792   0.28188   0.00000  Uiso   1.00
C312   C     0.59593   0.77739   0.20136   0.00000  Uiso   1.00
C313   C     0.56086   0.78840   0.22809   0.00000  Uiso   1.00
C314   C     0.54806   0.75582   0.25424   0.00000  Uiso   1.00
C315   C     0.60516   0.70385   0.22992   0.00000  Uiso   1.00
C316   C     0.61877   0.73495   0.20326   0.00000  Uiso   1.00
H317   H     0.45232   0.60273   0.37778   0.00000  Uiso   1.00
H318   H     0.52975   0.50228   0.29859   0.00000  Uiso   1.00
H319   H     0.56436   0.56881   0.27054   0.00000  Uiso   1.00
H320   H     0.48863   0.66669   0.34820   0.00000  Uiso   1.00
N321   N     0.52818   0.62050   0.30842   0.00000  Uiso   1.00
N322   N     0.56995   0.71433   0.25400   0.00000  Uiso   1.00
H323   H     0.54260   0.82085   0.22753   0.00000  Uiso   1.00
H324   H     0.51984   0.76292   0.27360   0.00000  Uiso   1.00
H325   H     0.62159   0.67041   0.23029   0.00000  Uiso   1.00
H326   H     0.64648   0.72544   0.18372   0.00000  Uiso   1.00
C327   C     0.48812   0.54736   0.34022   0.00000  Uiso   1.00
C328   C     0.52074   0.53807   0.31055   0.00000  Uiso   1.00
C329   C     0.54043   0.57556   0.29480   0.00000  Uiso   1.00
C330   C     0.49789   0.63058   0.33833   0.00000  Uiso   1.00
C331   C     0.47730   0.59427   0.35478   0.00000  Uiso   1.00
loop_
_geom_bond_atom_site_label_1
_geom_bond_atom_site_label_2
_geom_bond_distance
_geom_bond_site_symmetry_2
_ccdc_geom_bond_type
Y0     O2      2.236   .     S
Y0     O3      2.298   .     S
Y0     O6      2.236   .     S
Y0     O7      2.285   .     S
Y0     O9      2.270   .     S
Y0     O10     2.256   .     S
Y0     O11     2.243   .     S
Y1     O3      2.271   .     S
Y1     O5      2.251   .     S
Y1     O8      2.295   .     S
Y1     O9      2.255   .     S
Y1     O13     2.265   .     S
Y1     O15     2.260   .     S
Y1     O16     2.255   .     S
O2     C12     1.285   .     A
O3     C14     1.379   .     S
C4     O15     1.261   .     A
C4     O16     1.261   .     A
C4     C207    1.476   .     S
O5     C14     1.210   .     D
O6     C17     1.256   .     A
O7     C17     1.267   .     A
O8     C12     1.292   .     A
O9     C19     1.380   .     S
O10    C19     1.206   .     D
O11    C18     1.279   .     A
C12    C201    1.469   .     S
O13    C18     1.283   .     A
C14    C270    1.470   .     S
C17    C264    1.479   .     S
C18    C306    1.484   .     S
C19    C96     1.476   .     S
Y20    O22     2.232   .     S
Y20    O23     2.295   .     S
Y20    O26     2.234   .     S
Y20    O27     2.283   .     S
Y20    O29     2.268   .     S
Y20    O30     2.250   .     S
Y20    O31     2.239   .     S
Y21    O23     2.267   .     S
Y21    O25     2.258   .     S
Y21    O28     2.293   .     S
Y21    O29     2.255   .     S
Y21    O33     2.264   .     S
Y21    O35     2.267   .     S
Y21    O36     2.251   .     S
O22    C32     1.286   .     A
O23    C34     1.381   .     S
C24    O35     1.264   .     A
C24    O36     1.259   .     A
C24    C117    1.478   .     S
O25    C34     1.212   .     D
O26    C37     1.257   .     A
O27    C37     1.267   .     A
O28    C32     1.292   .     A
O29    C39     1.382   .     S
O30    C39     1.207   .     D
O31    C38     1.278   .     A
C32    C312    1.473   .     S
O33    C38     1.283   .     A
C34    C81     1.478   .     S
C37    C291    1.477   .     S
C38    C159    1.482   .     S
C39    C180    1.477   .     S
Y40    O42     2.225   .     S
Y40    O43     2.305   .     S
Y40    O46     2.242   .     S
Y40    O47     2.284   .     S
Y40    O49     2.265   .     S
Y40    O50     2.266   .     S
Y40    O51     2.246   .     S
Y41    O43     2.277   .     S
Y41    O45     2.236   .     S
Y41    O48     2.300   .     S
Y41    O49     2.242   .     S
Y41    O53     2.265   .     S
Y41    O55     2.254   .     S
Y41    O56     2.266   .     S
O42    C52     1.283   .     A
O43    C54     1.384   .     S
C44    O55     1.259   .     A
C44    O56     1.261   .     A
C44    C243    1.475   .     S
O45    C54     1.210   .     D
O46    C57     1.254   .     A
O47    C57     1.265   .     A
O48    C52     1.291   .     A
O49    C59     1.371   .     S
O50    C59     1.205   .     D
O51    C58     1.280   .     A
C52    C123    1.471   .     S
O53    C58     1.285   .     A
C54    C165    1.472   .     S
C57    C144    1.473   .     S
C58    C249    1.483   .     S
C59    C285    1.473   .     S
Y60    O62     2.227   .     S
Y60    O63     2.291   .     S
Y60    O66     2.235   .     S
Y60    O67     2.267   .     S
Y60    O69     2.255   .     S
Y60    O70     2.265   .     S
Y60    O71     2.237   .     S
Y61    O63     2.257   .     S
Y61    O65     2.254   .     S
Y61    O68     2.305   .     S
Y61    O69     2.242   .     S
Y61    O73     2.271   .     S
Y61    O75     2.267   .     S
Y61    O76     2.252   .     S
O62    C72     1.282   .     A
O63    C74     1.379   .     S
C64    O75     1.262   .     A
C64    O76     1.258   .     A
C64    C228    1.476   .     S
O65    C74     1.212   .     D
O66    C77     1.257   .     A
O67    C77     1.265   .     A
O68    C72     1.293   .     A
O69    C79     1.373   .     S
O70    C79     1.207   .     D
O71    C78     1.277   .     A
C72    C138    1.476   .     S
O73    C78     1.285   .     A
C74    C102    1.473   .     S
C77    C327    1.469   .     S
C78    C222    1.466   .     S
C79    C186    1.472   .     S
Ni80   N90     1.845   .     S
Ni80   N91     1.846   1_556 S
C81    C82     1.404   .     A
C81    C85     1.404   .     A
C82    C83     1.401   .     A
C82    H92     1.083   .     S
C83    N91     1.361   .     A
C83    H93     1.082   .     S
C84    H94     1.082   .     S
C84    C85     1.397   1_556 A
C84    N91     1.359   1_556 A
C85    C84     1.397   1_554 A
C85    H95     1.083   1_554 S
H86    C100    1.083   .     S
H87    C97     1.084   .     S
H88    C98     1.082   .     S
H89    C99     1.082   .     S
N90    C98     1.358   .     A
N90    C99     1.362   .     A
N91    Ni80    1.846   1_554 S
N91    C84     1.359   1_554 A
H95    C85     1.083   1_556 S
C96    C97     1.405   .     A
C96    C100    1.401   .     A
C97    C98     1.395   .     A
C99    C100    1.402   .     A
Ni101  N111    1.842   .     S
Ni101  N112    1.842   .     S
C102   C103    1.403   .     A
C102   C106    1.403   .     A
C103   C104    1.395   .     A
C103   H113    1.083   .     S
C104   N112    1.359   .     A
C104   H114    1.082   .     S
C105   C106    1.399   .     A
C105   N112    1.361   .     A
C105   H115    1.082   .     S
C106   H116    1.083   .     S
H107   C121    1.082   1_565 S
H108   C118    1.083   .     S
H109   C119    1.082   .     S
H110   C120    1.082   .     S
N111   C119    1.358   .     A
N111   C120    1.360   .     A
C117   C118    1.405   1_565 A
C117   C121    1.402   1_565 A
C118   C119    1.397   .     A
C118   C117    1.405   1_545 A
C120   C121    1.399   .     A
C121   H107    1.082   1_545 S
C121   C117    1.402   1_545 A
Ni122  N132    1.834   .     S
Ni122  N133    1.834   .     S
C123   C124    1.404   .     A
C123   C127    1.403   .     A
C124   C125    1.388   .     A
C124   H134    1.083   .     S
C125   N133    1.355   .     A
C125   H135    1.082   .     S
C126   C127    1.401   .     A
C126   N133    1.362   .     A
C126   H136    1.082   .     S
C127   H137    1.083   .     S
H128   C142    1.083   .     S
H129   C139    1.083   .     S
H130   C140    1.082   .     S
H131   C141    1.082   .     S
N132   C140    1.355   .     A
N132   C141    1.361   .     A
C138   C139    1.406   .     A
C138   C142    1.403   .     A
C139   C140    1.391   .     A
C141   C142    1.399   .     A
Ni143  N153    1.842   .     S
Ni143  N154    1.843   .     S
C144   C148    1.405   .     A
C144   C145    1.400   1_545 A
C145   C146    1.400   .     A
C145   H155    1.083   .     S
C145   C144    1.400   1_565 A
C146   N154    1.362   .     A
C146   H156    1.082   .     S
C147   C148    1.396   .     A
C147   H157    1.082   .     S
C147   N154    1.358   1_545 A
C148   H158    1.083   .     S
H149   C163    1.083   .     S
H150   C160    1.083   1_545 S
H151   C161    1.082   1_545 S
H152   C162    1.082   .     S
N153   C161    1.362   .     A
N153   C162    1.357   .     A
N154   C147    1.358   1_565 A
C159   C160    1.406   .     A
C159   C163    1.405   .     A
C160   H150    1.083   1_565 S
C160   C161    1.403   1_554 A
C161   H151    1.082   1_565 S
C161   C160    1.403   1_556 A
C162   C163    1.392   1_556 A
C163   C162    1.392   1_554 A
Ni164  N174    1.841   .     S
Ni164  N175    1.841   .     S
C165   C169    1.402   .     A
C165   C166    1.403   1_545 A
C166   C167    1.410   .     A
C166   H176    1.083   .     S
C166   C165    1.403   1_565 A
C167   N175    1.366   .     A
C167   H177    1.082   .     S
C168   C169    1.384   .     A
C168   H178    1.082   .     S
C168   N175    1.353   1_545 A
C169   H179    1.084   .     S
H170   C184    1.083   .     S
H171   C181    1.082   .     S
H172   C182    1.081   1_545 S
H173   C183    1.081   .     S
N174   C182    1.363   .     A
N174   C183    1.356   .     A
N175   C168    1.353   1_565 A
C180   C181    1.401   .     A
C180   C184    1.406   .     A
C181   C182    1.402   .     A
C182   H172    1.081   1_565 S
C183   C184    1.392   .     A
Ni185  N195    1.835   .     S
Ni185  N196    1.835   .     S
C186   C187    1.401   .     A
C186   C190    1.404   .     A
C187   C188    1.396   .     A
C187   H197    1.083   .     S
C188   N196    1.360   .     A
C188   H198    1.082   .     S
C189   C190    1.395   .     A
C189   N196    1.358   .     A
C189   H199    1.082   .     S
C190   H200    1.083   .     S
H191   C205    1.083   .     S
H192   C202    1.083   .     S
H193   C203    1.082   .     S
H194   C204    1.082   .     S
N195   C203    1.363   .     A
N195   C204    1.355   .     A
C201   C202    1.402   .     A
C201   C205    1.402   .     A
C202   C203    1.402   .     A
C204   C205    1.390   .     A
Ni206  N216    1.844   .     S
Ni206  N217    1.844   .     S
C207   C211    1.405   .     A
C207   C208    1.403   1_556 A
C208   C209    1.396   .     A
C208   H218    1.084   .     S
C208   C207    1.403   1_554 A
C209   N217    1.360   .     A
C209   H219    1.082   .     S
C210   N217    1.360   .     A
C210   H220    1.082   .     S
C210   C211    1.400   1_554 A
C211   H221    1.083   .     S
C211   C210    1.400   1_556 A
H212   C226    1.083   .     S
H213   C223    1.083   .     S
H214   C224    1.082   .     S
H215   C225    1.082   .     S
N216   C224    1.361   .     A
N216   C225    1.359   .     A
C222   C223    1.402   .     A
C222   C226    1.400   .     A
C223   C224    1.402   .     A
C225   C226    1.395   .     A
Ni227  N237    1.842   .     S
Ni227  N238    1.843   .     S
C228   C229    1.403   .     A
C228   C232    1.405   .     A
C229   C230    1.398   .     A
C229   H239    1.083   .     S
C230   N238    1.361   .     A
C230   H240    1.082   .     S
C231   C232    1.397   .     A
C231   N238    1.359   .     A
C231   H241    1.082   .     S
C232   H242    1.083   .     S
H233   C247    1.083   .     S
H234   C244    1.083   .     S
H235   C245    1.081   .     S
H236   C246    1.081   .     S
N237   C245    1.361   .     A
N237   C246    1.358   .     A
C243   C244    1.404   .     A
C243   C247    1.402   .     A
C244   C245    1.400   1_655 A
C245   C244    1.400   1_455 A
C246   C247    1.395   1_455 A
C247   C246    1.395   1_655 A
Ni248  N259    1.843   .     S
Ni248  N258    1.843   1_655 S
C249   C250    1.405   .     A
C249   C253    1.406   1_545 A
C250   H260    1.083   .     S
C250   C251    1.404   1_545 A
C251   N259    1.362   .     A
C251   C250    1.404   1_565 A
C251   H261    1.082   1_655 S
C252   C253    1.392   .     A
C252   N259    1.356   .     A
C252   H262    1.081   .     S
C253   H263    1.082   .     S
C253   C249    1.406   1_565 A
H254   C268    1.083   .     S
H255   C265    1.083   .     S
H256   C266    1.082   .     S
H257   C267    1.083   .     S
N258   C267    1.356   .     A
N258   Ni248   1.843   1_455 S
N258   C266    1.363   1_455 A
H261   C251    1.082   1_455 S
C264   C268    1.405   .     A
C264   C265    1.403   1_455 A
C265   C266    1.404   .     A
C265   C264    1.403   1_655 A
C266   N258    1.363   1_655 A
C267   C268    1.393   .     A
Ni269  N279    1.837   .     S
Ni269  N280    1.837   1_655 S
C270   C271    1.403   .     A
C270   C274    1.404   .     A
C271   C272    1.393   .     A
C271   H281    1.084   .     S
C272   N280    1.358   .     A
C272   H282    1.083   1_455 S
C273   C274    1.400   .     A
C273   N280    1.361   .     A
C273   H283    1.082   .     S
C274   H284    1.084   .     S
H275   C289    1.083   .     S
H276   C286    1.082   .     S
H277   C287    1.081   .     S
H278   C288    1.083   .     S
N279   C287    1.360   .     A
N279   C288    1.357   .     A
N280   Ni269   1.837   1_455 S
H282   C272    1.083   1_655 S
C285   C286    1.402   .     A
C285   C289    1.404   .     A
C286   C287    1.399   .     A
C288   C289    1.393   .     A
Ni290  N300    1.842   .     S
Ni290  N301    1.841   .     S
C291   C292    1.404   .     A
C291   C295    1.403   1_554 A
C292   C293    1.392   .     A
C292   H302    1.083   .     S
C293   H303    1.082   .     S
C293   N301    1.356   1_554 A
C294   C295    1.403   .     A
C294   N301    1.363   .     A
C294   H304    1.082   .     S
C295   H305    1.083   .     S
C295   C291    1.403   1_556 A
H296   C310    1.083   .     S
H297   C307    1.082   .     S
H298   C308    1.081   .     S
H299   C309    1.081   1_454 S
N300   C308    1.356   .     A
N300   C309    1.362   .     A
N301   C293    1.356   1_556 A
C306   C310    1.406   .     A
C306   C307    1.406   1_455 A
C307   C308    1.392   .     A
C307   C306    1.406   1_655 A
C309   H299    1.081   1_656 S
C309   C310    1.404   1_655 A
C310   C309    1.404   1_455 A
Ni311  N321    1.831   .     S
Ni311  N322    1.831   .     S
C312   C313    1.403   .     A
C312   C316    1.405   .     A
C313   C314    1.400   .     A
C313   H323    1.083   .     S
C314   N322    1.361   .     A
C314   H324    1.082   .     S
C315   C316    1.388   .     A
C315   N322    1.354   .     A
C315   H325    1.082   .     S
C316   H326    1.083   .     S
H317   C331    1.083   .     S
H318   C328    1.083   .     S
H319   C329    1.082   .     S
H320   C330    1.082   .     S
N321   C329    1.360   .     A
N321   C330    1.356   .     A
C327   C328    1.401   .     A
C327   C331    1.404   .     A
C328   C329    1.396   .     A
C330   C331    1.392   .     A
