data_lcy+N106+E220
_audit_creation_date              2025-01-21
_audit_creation_method            'Materials Studio'
_symmetry_space_group_name_H-M    'P1'
_symmetry_Int_Tables_number       1
_symmetry_cell_setting            triclinic
loop_
_symmetry_equiv_pos_as_xyz
  x,y,z
_cell_length_a                    19.2288
_cell_length_b                    18.8942
_cell_length_c                    19.3977
_cell_angle_alpha                 103.0935
_cell_angle_beta                  99.3481
_cell_angle_gamma                 92.4661
loop_
_atom_site_label
_atom_site_type_symbol
_atom_site_fract_x
_atom_site_fract_y
_atom_site_fract_z
_atom_site_U_iso_or_equiv
_atom_site_adp_type
_atom_site_occupancy
Y0     Y     0.09772   0.64205   0.79619   0.00000  Uiso   1.00
Y1     Y     0.16625   0.55807   0.90845   0.00000  Uiso   1.00
O2     O     0.15558   0.56553   0.72694   0.00000  Uiso   1.00
O3     O     0.09350   0.51949   0.80053   0.00000  Uiso   1.00
C4     C     0.23461   0.51958   1.02517   0.00000  Uiso   1.00
O5     O     0.06773   0.48587   0.89322   0.00000  Uiso   1.00
O6     O     0.07814   0.75693   0.79418   0.00000  Uiso   1.00
O7     O     0.03002   0.67680   0.70303   0.00000  Uiso   1.00
O8     O     0.23340   0.53944   0.81653   0.00000  Uiso   1.00
O9     O     0.17194   0.67514   0.90389   0.00000  Uiso   1.00
O10    O     0.20963   0.69459   0.81207   0.00000  Uiso   1.00
O11    O     0.01183   0.63201   0.85806   0.00000  Uiso   1.00
C12    C     0.21450   0.54201   0.74962   0.00000  Uiso   1.00
O13    O     0.07860   0.61782   0.95885   0.00000  Uiso   1.00
C14    C     0.04828   0.47898   0.82954   0.00000  Uiso   1.00
O15    O     0.20373   0.47376   0.96953   0.00000  Uiso   1.00
O16    O     0.23747   0.58359   0.01649   0.00000  Uiso   1.00
C17    C     0.04027   0.74441   0.73294   0.00000  Uiso   1.00
C18    C     0.01906   0.62937   0.92373   0.00000  Uiso   1.00
C19    C     0.22773   0.69816   0.87537   0.00000  Uiso   1.00
Y20    Y     0.67237   0.80066   0.08532   0.00000  Uiso   1.00
Y21    Y     0.57834   0.92526   0.14599   0.00000  Uiso   1.00
O22    O     0.61940   0.74852   0.15731   0.00000  Uiso   1.00
O23    O     0.55226   0.80691   0.08464   0.00000  Uiso   1.00
C24    C     0.53220   0.05444   0.20338   0.00000  Uiso   1.00
O25    O     0.49757   0.88976   0.04431   0.00000  Uiso   1.00
O26    O     0.78238   0.78441   0.06666   0.00000  Uiso   1.00
O27    O     0.70746   0.69406   1.02526   0.00000  Uiso   1.00
O28    O     0.58614   0.85095   0.22557   0.00000  Uiso   1.00
O29    O     0.69490   0.91433   0.15967   0.00000  Uiso   1.00
O30    O     0.73984   0.82499   0.19498   0.00000  Uiso   1.00
O31    O     0.64902   0.85581  -0.00531   0.00000  Uiso   1.00
C32    C     0.60102   0.78345   0.21560   0.00000  Uiso   1.00
O33    O     0.62159   0.96241   0.05687   0.00000  Uiso   1.00
C34    C     0.50074   0.82458   0.03395   0.00000  Uiso   1.00
O35    O     0.59584   1.04562   0.19846   0.00000  Uiso   1.00
O36    O     0.49368  -0.00508   0.18546   0.00000  Uiso   1.00
C37    C     0.77173   0.71830   0.03428   0.00000  Uiso   1.00
C38    C     0.63680   0.92230  -0.00051   0.00000  Uiso   1.00
C39    C     0.72931   0.88786   0.21602   0.00000  Uiso   1.00
Y40    Y     0.78158   0.08854   0.68340   0.00000  Uiso   1.00
Y41    Y     0.89545   0.13763   0.60113   0.00000  Uiso   1.00
O42    O     0.71568   0.15403   0.62219   0.00000  Uiso   1.00
O43    O     0.78763   0.07579   0.56162   0.00000  Uiso   1.00
C44    C     1.00252   0.20574   0.56160   0.00000  Uiso   1.00
O45    O     0.87841   0.03282   0.51977   0.00000  Uiso   1.00
O46    O     0.75558   0.08740   0.79131   0.00000  Uiso   1.00
O47    O     0.69079   0.01766   0.70216   0.00000  Uiso   1.00
O48    O     0.80798   0.21749   0.59922   0.00000  Uiso   1.00
O49    O     0.89049   0.14741   0.71605   0.00000  Uiso   1.00
O50    O     0.80579   0.20733   0.74820   0.00000  Uiso   1.00
O51    O     0.84891  -0.00583   0.67038   0.00000  Uiso   1.00
C52    C     0.74146   0.20721   0.60113   0.00000  Uiso   1.00
O53    O     0.94473   0.04416   0.64121   0.00000  Uiso   1.00
C54    C     0.81501   0.02200   0.51370   0.00000  Uiso   1.00
O55    O     0.94596   0.17917   0.51905   0.00000  Uiso   1.00
O56    O     1.00205   0.19963   0.62472   0.00000  Uiso   1.00
C57    C     0.70393   0.04027   0.76991   0.00000  Uiso   1.00
C58    C     0.91168  -0.00882   0.65713   0.00000  Uiso   1.00
C59    C     0.86827   0.21315   0.74653   0.00000  Uiso   1.00
Y60    Y     0.47383   0.49053   0.42768   0.00000  Uiso   1.00
Y61    Y     0.35142   0.37624   0.42284   0.00000  Uiso   1.00
O62    O     0.54041   0.42176   0.48376   0.00000  Uiso   1.00
O63    O     0.45236   0.36498   0.37857   0.00000  Uiso   1.00
C64    C     0.24722   0.31338   0.47069   0.00000  Uiso   1.00
O65    O     0.35378   0.31304   0.31235   0.00000  Uiso   1.00
O66    O     0.49167   0.60832   0.42738   0.00000  Uiso   1.00
O67    O     0.56878   0.53873   0.39483   0.00000  Uiso   1.00
O68    O     0.45000   0.34659   0.49458   0.00000  Uiso   1.00
O69    O     0.36863   0.49595   0.46217   0.00000  Uiso   1.00
O70    O     0.45846   0.52778   0.54506   0.00000  Uiso   1.00
O71    O     0.40564   0.47956   0.32099   0.00000  Uiso   1.00
C72    C     0.51668   0.36840   0.50592   0.00000  Uiso   1.00
O73    O     0.30233   0.43959   0.34296   0.00000  Uiso   1.00
C74    C     0.41698   0.31984   0.31382   0.00000  Uiso   1.00
O75    O     0.25779   0.29503   0.40687   0.00000  Uiso   1.00
O76    O     0.29178   0.36272   0.51004   0.00000  Uiso   1.00
C77    C     0.54709   0.60169   0.40081   0.00000  Uiso   1.00
C78    C     0.33881   0.46680   0.30377   0.00000  Uiso   1.00
C79    C     0.39466   0.51755   0.53429   0.00000  Uiso   1.00
C80    C     0.43919   0.77533   0.99091   0.00000  Uiso   1.00
C81    C     0.38748   0.75000   0.02624   0.00000  Uiso   1.00
C82    C     0.31861   0.72625  -0.01175   0.00000  Uiso   1.00
C83    C     0.30068   0.72361   0.91483   0.00000  Uiso   1.00
C84    C     0.35316   0.74535   0.87922   0.00000  Uiso   1.00
C85    C     0.42112   0.77223   0.91717   0.00000  Uiso   1.00
O86    O     0.35601   0.77282   0.14198   0.00000  Uiso   1.00
O87    O     0.45621   0.71988   0.12655   0.00000  Uiso   1.00
N88    N     0.40274   0.75212   0.10159   0.00000  Uiso   1.00
H89    H     0.34093   0.74417   0.82244   0.00000  Uiso   1.00
H90    H     0.45885   0.79362   0.88960   0.00000  Uiso   1.00
H91    H     0.27863   0.71088   0.01663   0.00000  Uiso   1.00
C92    C     0.44954   0.26254   0.26636   0.00000  Uiso   1.00
C93    C     0.52357   0.25956   0.27145   0.00000  Uiso   1.00
C94    C     0.55050   0.19103   0.24959   0.00000  Uiso   1.00
C95    C     0.50484   0.12686   0.22282   0.00000  Uiso   1.00
C96    C     0.43205   0.13254   0.20954   0.00000  Uiso   1.00
C97    C     0.40490   0.19958   0.22952   0.00000  Uiso   1.00
O98    O     0.63884   0.32049   0.31369   0.00000  Uiso   1.00
O99    O     0.54867   0.38775   0.29146   0.00000  Uiso   1.00
N100   N     0.57119   0.32477   0.29641   0.00000  Uiso   1.00
H101   H     0.39565   0.08472   0.18515   0.00000  Uiso   1.00
H102   H     0.34790   0.20041   0.22191   0.00000  Uiso   1.00
H103   H     0.60695   0.18752   0.25368   0.00000  Uiso   1.00
C104   C     0.69077   0.25601   0.57728   0.00000  Uiso   1.00
C105   C     0.67028   0.25353   0.50348   0.00000  Uiso   1.00
C106   C     0.60934   0.28690   0.48190   0.00000  Uiso   1.00
C107   C     0.57032   0.32365   0.53186   0.00000  Uiso   1.00
C108   C     0.59136   0.32686   0.60473   0.00000  Uiso   1.00
C109   C     0.65095   0.29249   0.62722   0.00000  Uiso   1.00
O110   O     0.67658   0.19401   0.38314   0.00000  Uiso   1.00
O111   O     0.77657   0.21370   0.46376   0.00000  Uiso   1.00
N112   N     0.70794   0.21638   0.44935   0.00000  Uiso   1.00
H113   H     0.56232   0.35631   0.64385   0.00000  Uiso   1.00
H114   H     0.66564   0.29345   0.68375   0.00000  Uiso   1.00
H115   H     0.59293   0.28604   0.42577   0.00000  Uiso   1.00
C116   C     0.66818   1.01216   0.82114   0.00000  Uiso   1.00
C117   C     0.66140   0.05892   0.88749   0.00000  Uiso   1.00
C118   C     0.64837   0.02923   0.94467   0.00000  Uiso   1.00
C119   C     0.64228   0.95350   0.93689   0.00000  Uiso   1.00
C120   C     0.64455   0.90752   0.86926   0.00000  Uiso   1.00
C121   C     0.65652   0.93663   0.81168   0.00000  Uiso   1.00
O122   O     0.63821   0.16792   0.85000   0.00000  Uiso   1.00
O123   O     0.70710   0.17653   0.95725   0.00000  Uiso   1.00
N124   N     0.67001   0.13648   0.89802   0.00000  Uiso   1.00
H125   H     0.63971   0.84884   0.86150   0.00000  Uiso   1.00
H126   H     0.66237   0.89992   0.76159   0.00000  Uiso   1.00
H127   H     0.64531   0.06558  -0.00410   0.00000  Uiso   1.00
C128   C     0.77677   0.97328   0.44562   0.00000  Uiso   1.00
C129   C     0.71492  -0.00736   0.40575   0.00000  Uiso   1.00
C130   C     0.70231  -0.03055   0.32956   0.00000  Uiso   1.00
C131   C     0.74739   0.92347   0.29373   0.00000  Uiso   1.00
C132   C     0.80311   0.89787   0.33495   0.00000  Uiso   1.00
C133   C     0.81729   0.92191   0.40938   0.00000  Uiso   1.00
O134   O     0.65458   0.02478   0.50429   0.00000  Uiso   1.00
O135   O     0.61549   0.06297   0.40513   0.00000  Uiso   1.00
N136   N     0.66350   0.03261   0.44124   0.00000  Uiso   1.00
H137   H     0.83709   0.85992   0.30923   0.00000  Uiso   1.00
H138   H     0.86405   0.90470   0.43847   0.00000  Uiso   1.00
H139   H     0.65551  -0.01599   0.29859   0.00000  Uiso   1.00
C140   C     0.34966   0.52375   0.59063   0.00000  Uiso   1.00
C141   C     0.27546   0.52261   0.57165   0.00000  Uiso   1.00
C142   C     0.23281   0.51951   0.62289   0.00000  Uiso   1.00
C143   C     0.26180   0.52412   0.69536   0.00000  Uiso   1.00
C144   C     0.33551   0.52508   0.71436   0.00000  Uiso   1.00
C145   C     0.37894   0.52382   0.66218   0.00000  Uiso   1.00
O146   O     0.18476   0.48792   0.46917   0.00000  Uiso   1.00
O147   O     0.26148   0.58345   0.47688   0.00000  Uiso   1.00
N148   N     0.24240   0.52851   0.50164   0.00000  Uiso   1.00
H149   H     0.35953   0.52917   0.76967   0.00000  Uiso   1.00
H150   H     0.43554   0.52338   0.67779   0.00000  Uiso   1.00
H151   H     0.17615   0.51880   0.60646   0.00000  Uiso   1.00
C152   C     0.25934   0.50289   0.09552   0.00000  Uiso   1.00
C153   C     0.22308   0.44963   0.12112   0.00000  Uiso   1.00
C154   C     0.24757   0.43965   0.19059   0.00000  Uiso   1.00
C155   C     0.30629   0.48251   0.23499   0.00000  Uiso   1.00
C156   C     0.34012   0.53647   0.20974   0.00000  Uiso   1.00
C157   C     0.31678   0.54668   0.14121   0.00000  Uiso   1.00
O158   O     0.14764   0.34040   0.08186   0.00000  Uiso   1.00
O159   O     0.10870   0.44074   0.05053   0.00000  Uiso   1.00
N160   N     0.15982   0.40800   0.07941   0.00000  Uiso   1.00
H161   H     0.38553   0.57059   0.24300   0.00000  Uiso   1.00
H162   H     0.34409   0.58891   0.12357   0.00000  Uiso   1.00
H163   H     0.22100   0.39819   0.20983   0.00000  Uiso   1.00
C164   C     0.18673   0.28354   0.49542   0.00000  Uiso   1.00
C165   C     0.18918   0.28059   0.56801   0.00000  Uiso   1.00
C166   C     0.12741   0.25812   0.58950   0.00000  Uiso   1.00
C167   C     0.06427   0.23683   0.53969   0.00000  Uiso   1.00
C168   C     0.06241   0.23993   0.46803   0.00000  Uiso   1.00
C169   C     0.12316   0.26299   0.44610   0.00000  Uiso   1.00
O170   O     0.25342   0.32622   0.68651   0.00000  Uiso   1.00
O171   O     0.31207   0.27035   0.60162   0.00000  Uiso   1.00
N172   N     0.25421   0.29629   0.61927   0.00000  Uiso   1.00
H173   H     0.01410   0.22415   0.42883   0.00000  Uiso   1.00
H174   H     0.12021   0.26609   0.39059   0.00000  Uiso   1.00
H175   H     0.12939   0.25436   0.64467   0.00000  Uiso   1.00
C176   C     0.94803   0.92558   0.66523   0.00000  Uiso   1.00
C177   C     0.92018   0.85335   0.62799   0.00000  Uiso   1.00
C178   C     0.95311   0.79353   0.64732   0.00000  Uiso   1.00
C179   C     1.01173   0.80468   0.70302   0.00000  Uiso   1.00
C180   C     1.04128   0.87609   0.73537   0.00000  Uiso   1.00
C181   C     1.01000   0.93564   0.71652   0.00000  Uiso   1.00
O182   O     0.85943   0.78404   0.51489   0.00000  Uiso   1.00
O183   O     0.80440   0.87409   0.57413   0.00000  Uiso   1.00
N184   N     0.86087   0.83908   0.56951   0.00000  Uiso   1.00
H185   H     1.08771   0.88624   0.77732   0.00000  Uiso   1.00
H186   H     1.03242   0.99012   0.74479   0.00000  Uiso   1.00
H187   H     0.93085   0.73846   0.62120   0.00000  Uiso   1.00
C188   C     0.00133   0.41358   0.79045   0.00000  Uiso   1.00
C189   C     0.03071   0.34513   0.78071   0.00000  Uiso   1.00
C190   C    -0.01365   0.28109   0.76956   0.00000  Uiso   1.00
C191   C     0.91316   0.28288   0.76545   0.00000  Uiso   1.00
C192   C     0.88394   0.35052   0.77294   0.00000  Uiso   1.00
C193   C     0.92782   0.41533   0.78646   0.00000  Uiso   1.00
O194   O     0.13511   0.28587   0.80729   0.00000  Uiso   1.00
O195   O     0.14453   0.38552   0.76416   0.00000  Uiso   1.00
N196   N     0.10589   0.34008   0.78633   0.00000  Uiso   1.00
H197   H     0.82734   0.35330   0.76900   0.00000  Uiso   1.00
H198   H     0.90473   0.46706   0.79680   0.00000  Uiso   1.00
H199   H     0.00928   0.22918   0.76384   0.00000  Uiso   1.00
C200   C     0.83057   0.67728   1.01020   0.00000  Uiso   1.00
C201   C     0.82531   0.63388   0.93990   0.00000  Uiso   1.00
C202   C     0.88797   0.61680   0.91362   0.00000  Uiso   1.00
C203   C     0.95509   0.63956   0.95722   0.00000  Uiso   1.00
C204   C     0.95933   0.67537   0.02628   0.00000  Uiso   1.00
C205   C     0.89805   0.69524   0.05372   0.00000  Uiso   1.00
O206   O     0.75101   0.61107   0.82556   0.00000  Uiso   1.00
O207   O     0.70759   0.57995   0.91606   0.00000  Uiso   1.00
N208   N     0.75819   0.61113   0.89345   0.00000  Uiso   1.00
H209   H     0.01035   0.69357   0.06024   0.00000  Uiso   1.00
H210   H     0.90364   0.72874   0.10797   0.00000  Uiso   1.00
H211   H     0.88429   0.58698   0.85829   0.00000  Uiso   1.00
C212   C     0.59856   0.74385   0.27289   0.00000  Uiso   1.00
C213   C     0.63583   0.68063   0.27464   0.00000  Uiso   1.00
C214   C     0.62366   0.63823   0.32245   0.00000  Uiso   1.00
C215   C     0.57560   0.65742   0.36888   0.00000  Uiso   1.00
C216   C     0.54377   0.72329   0.37173   0.00000  Uiso   1.00
C217   C     0.55539   0.76628   0.32423   0.00000  Uiso   1.00
O218   O     0.74308   0.69631   0.23298   0.00000  Uiso   1.00
O219   O     0.67645   0.59053   0.18758   0.00000  Uiso   1.00
N220   N     0.68426   0.65697   0.22691   0.00000  Uiso   1.00
H221   H     0.50601   0.73895   0.40709   0.00000  Uiso   1.00
H222   H     0.52700   0.81462   0.32462   0.00000  Uiso   1.00
H223   H     0.64882   0.58768   0.32008   0.00000  Uiso   1.00
loop_
_geom_bond_atom_site_label_1
_geom_bond_atom_site_label_2
_geom_bond_distance
_geom_bond_site_symmetry_2
_ccdc_geom_bond_type
Y0     O2      2.208   .     S
Y0     O3      2.335   .     S
Y0     O6      2.227   .     S
Y0     O7      2.289   .     S
Y0     O9      2.270   .     S
Y0     O10     2.274   .     S
Y0     O11     2.219   .     S
Y1     O3      2.267   .     S
Y1     O5      2.225   .     S
Y1     O8      2.339   .     S
Y1     O9      2.232   .     S
Y1     O13     2.296   .     S
Y1     O15     2.266   .     S
Y1     O16     2.248   1_556 S
O2     C12     1.282   .     A
O3     C14     1.398   .     S
C4     O15     1.262   .     A
C4     O16     1.258   1_556 A
C4     C152    1.478   1_556 S
O5     C14     1.206   .     D
O6     C17     1.255   .     A
O7     C17     1.270   .     A
O8     C12     1.302   .     A
O9     C19     1.381   .     S
O10    C19     1.206   .     D
O11    C18     1.271   .     A
C12    C143    1.492   .     S
O13    C18     1.288   .     A
C14    C188    1.474   .     S
O16    Y1      2.248   1_554 S
O16    C4      1.258   1_554 A
C17    C179    1.478   1_455 S
C18    C203    1.482   1_455 S
C19    C83     1.487   .     S
Y20    O22     2.226   .     S
Y20    O23     2.316   .     S
Y20    O26     2.226   .     S
Y20    O29     2.279   .     S
Y20    O30     2.242   .     S
Y20    O31     2.234   .     S
Y20    O27     2.276   1_554 S
Y21    O23     2.274   .     S
Y21    O25     2.251   .     S
Y21    O28     2.302   .     S
Y21    O29     2.238   .     S
Y21    O33     2.267   .     S
Y21    O35     2.257   .     S
Y21    O36     2.259   1_565 S
O22    C32     1.285   .     A
O23    C34     1.386   .     S
C24    O36     1.266   .     A
C24    C95     1.478   .     S
C24    O35     1.258   1_545 A
O25    C34     1.208   .     D
O26    C37     1.256   .     A
O27    Y20     2.276   1_556 S
O27    C37     1.270   1_556 A
O28    C32     1.298   .     A
O29    C39     1.387   .     S
O30    C39     1.203   .     D
O31    C38     1.273   .     A
C32    C212    1.479   .     S
O33    C38     1.281   .     A
C34    C80     1.482   1_554 S
O35    C24     1.258   1_565 A
O36    Y21     2.259   1_545 S
C37    O27     1.270   1_554 A
C37    C200    1.477   1_554 S
C38    C119    1.481   1_554 S
C39    C131    1.482   .     S
Y40    O42     2.204   .     S
Y40    O43     2.342   .     S
Y40    O46     2.234   .     S
Y40    O47     2.280   .     S
Y40    O49     2.252   .     S
Y40    O50     2.297   .     S
Y40    O51     2.241   .     S
Y41    O43     2.263   .     S
Y41    O45     2.209   .     S
Y41    O48     2.309   .     S
Y41    O49     2.213   .     S
Y41    O53     2.269   .     S
Y41    O55     2.258   .     S
Y41    O56     2.243   .     S
O42    C52     1.277   .     A
O43    C54     1.397   .     S
C44    O55     1.261   .     A
C44    O56     1.257   .     A
C44    C167    1.467   1_655 S
O45    C54     1.209   .     D
O46    C57     1.255   .     A
O47    C57     1.266   .     A
O48    C52     1.293   .     A
O49    C59     1.367   .     S
O50    C59     1.208   .     D
O51    C58     1.275   .     A
C52    C104    1.462   .     S
O53    C58     1.285   .     A
C54    C128    1.486   1_545 S
C57    C116    1.474   1_545 S
C58    C176    1.475   1_545 S
C59    C191    1.482   .     S
Y60    O62     2.200   .     S
Y60    O63     2.339   .     S
Y60    O66     2.239   .     S
Y60    O67     2.251   .     S
Y60    O69     2.231   .     S
Y60    O70     2.297   .     S
Y60    O71     2.224   .     S
Y61    O63     2.246   .     S
Y61    O65     2.213   .     S
Y61    O68     2.330   .     S
Y61    O69     2.209   .     S
Y61    O73     2.277   .     S
Y61    O75     2.249   .     S
Y61    O76     2.246   .     S
O62    C72     1.277   .     A
O63    C74     1.398   .     S
C64    O75     1.260   .     A
C64    O76     1.258   .     A
C64    C164    1.466   .     S
O65    C74     1.212   .     D
O66    C77     1.256   .     A
O67    C77     1.264   .     A
O68    C72     1.298   .     A
O69    C79     1.368   .     S
O70    C79     1.210   .     D
O71    C78     1.272   .     A
C72    C107    1.460   .     S
O73    C78     1.286   .     A
C74    C92     1.485   .     S
C77    C215    1.466   .     S
C78    C155    1.478   .     S
C79    C140    1.488   .     S
C80    C85     1.403   .     A
C80    C81     1.420   1_556 A
C80    C34     1.482   1_556 S
C81    C82     1.407   .     A
C81    N88     1.434   .     S
C81    C80     1.420   1_554 A
C82    H91     1.081   .     S
C82    C83     1.399   1_554 A
C83    C84     1.408   .     A
C83    C82     1.399   1_556 A
C84    C85     1.403   .     A
C84    H89     1.083   .     S
C85    H90     1.084   .     S
O86    N88     1.302   .     A
O87    N88     1.299   .     A
C92    C93     1.415   .     A
C92    C97     1.411   .     A
C93    C94     1.416   .     A
C93    N100    1.442   .     S
C94    C95     1.409   .     A
C94    H103    1.081   .     S
C95    C96     1.395   .     A
C96    C97     1.388   .     A
C96    H101    1.084   .     S
C97    H102    1.083   .     S
O98    N100    1.300   .     A
O99    N100    1.302   .     A
C104   C105    1.411   .     A
C104   C109    1.408   .     A
C105   C106    1.403   .     A
C105   N112    1.441   .     S
C106   C107    1.400   .     A
C106   H115    1.079   .     S
C107   C108    1.392   .     A
C108   C109    1.398   .     A
C108   H113    1.082   .     S
C109   H114    1.083   .     S
O110   N112    1.293   .     A
O111   N112    1.309   .     A
C116   C121    1.400   .     A
C116   C117    1.415   1_565 A
C116   C57     1.474   1_565 S
C117   C118    1.403   .     A
C117   N124    1.432   .     S
C117   C116    1.415   1_545 A
C118   C119    1.402   1_545 A
C118   H127    1.084   1_556 S
C119   C120    1.408   .     A
C119   C118    1.402   1_565 A
C119   C38     1.481   1_556 S
C120   C121    1.398   .     A
C120   H125    1.082   .     S
C121   H126    1.084   .     S
O122   N124    1.301   .     A
O123   N124    1.302   .     A
H127   C118    1.084   1_554 S
C128   C133    1.406   .     A
C128   C129    1.419   1_565 A
C128   C54     1.486   1_565 S
C129   C130    1.420   .     A
C129   N136    1.439   .     S
C129   C128    1.419   1_545 A
C130   H139    1.080   .     S
C130   C131    1.406   1_545 A
C131   C132    1.401   .     A
C131   C130    1.406   1_565 A
C132   C133    1.389   .     A
C132   H137    1.084   .     S
C133   H138    1.085   .     S
O134   N136    1.302   .     A
O135   N136    1.300   .     A
C140   C141    1.412   .     A
C140   C145    1.410   .     A
C141   C142    1.397   .     A
C141   N148    1.434   .     S
C142   C143    1.407   .     A
C142   H151    1.083   .     S
C143   C144    1.404   .     A
C144   C145    1.410   .     A
C144   H149    1.081   .     S
C145   H150    1.082   .     S
O146   N148    1.302   .     A
O147   N148    1.301   .     A
C152   C153    1.423   .     A
C152   C157    1.400   .     A
C152   C4      1.478   1_554 S
C153   C154    1.411   .     A
C153   N160    1.436   .     S
C154   C155    1.401   .     A
C154   H163    1.083   .     S
C155   C156    1.405   .     A
C156   C157    1.391   .     A
C156   H161    1.084   .     S
C157   H162    1.084   .     S
O158   N160    1.301   .     A
O159   N160    1.301   .     A
C164   C165    1.415   .     A
C164   C169    1.404   .     A
C165   C166    1.401   .     A
C165   N172    1.439   .     S
C166   C167    1.404   .     A
C166   H175    1.083   .     S
C167   C168    1.399   .     A
C167   C44     1.467   1_455 S
C168   C169    1.392   .     A
C168   H173    1.084   .     S
C169   H174    1.084   .     S
O170   N172    1.302   .     A
O171   N172    1.300   .     A
C176   C177    1.427   .     A
C176   C181    1.398   .     A
C176   C58     1.475   1_565 S
C177   C178    1.413   .     A
C177   N184    1.440   .     S
C178   C179    1.401   .     A
C178   H187    1.084   .     S
C179   C180    1.404   .     A
C179   C17     1.478   1_655 S
C180   C181    1.391   .     A
C180   H185    1.084   .     S
C181   H186    1.084   .     S
O182   N184    1.301   .     A
O183   N184    1.300   .     A
C188   C189    1.419   .     A
C188   C193    1.405   1_455 A
C189   C190    1.404   .     A
C189   N196    1.441   .     S
C190   H199    1.083   .     S
C190   C191    1.399   1_455 A
C191   C192    1.405   .     A
C191   C190    1.399   1_655 A
C192   C193    1.405   .     A
C192   H197    1.083   .     S
C193   H198    1.082   .     S
C193   C188    1.405   1_655 A
O194   N196    1.302   .     A
O195   N196    1.300   .     A
C200   C201    1.409   .     A
C200   C205    1.410   1_556 A
C200   C37     1.477   1_556 S
C201   C202    1.405   .     A
C201   N208    1.436   .     S
C202   C203    1.414   .     A
C202   H211    1.083   .     S
C203   C204    1.345   1_556 D
C203   C18     1.482   1_655 S
C204   C205    1.401   .     A
C204   C203    1.345   1_554 D
C204   H209    1.083   1_655 S
C205   H210    1.084   .     S
C205   C200    1.410   1_554 A
O206   N208    1.301   .     A
O207   N208    1.301   .     A
H209   C204    1.083   1_455 S
C212   C213    1.423   .     A
C212   C217    1.403   .     A
C213   C214    1.396   .     A
C213   N220    1.433   .     S
C214   C215    1.396   .     A
C214   H223    1.084   .     S
C215   C216    1.404   .     A
C216   C217    1.396   .     A
C216   H221    1.083   .     S
C217   H222    1.083   .     S
O218   N220    1.300   .     A
O219   N220    1.301   .     A
