data_lcy+N155+E183
_audit_creation_date              2025-01-21
_audit_creation_method            'Materials Studio'
_symmetry_space_group_name_H-M    'P1'
_symmetry_Int_Tables_number       1
_symmetry_cell_setting            triclinic
loop_
_symmetry_equiv_pos_as_xyz
  x,y,z
_cell_length_a                    21.9699
_cell_length_b                    21.5489
_cell_length_c                    21.6945
_cell_angle_alpha                 89.5941
_cell_angle_beta                  102.1220
_cell_angle_gamma                 98.6820
loop_
_atom_site_label
_atom_site_type_symbol
_atom_site_fract_x
_atom_site_fract_y
_atom_site_fract_z
_atom_site_U_iso_or_equiv
_atom_site_adp_type
_atom_site_occupancy
C0     C     0.25095   0.61003   0.76463   0.00000  Uiso   1.00
Ho1    Ho    0.18829   0.63865   0.84240   0.00000  Uiso   1.00
C2     C    -0.00975   0.69848   0.96499   0.00000  Uiso   1.00
Ho3    Ho    0.07559   0.66784   0.91127   0.00000  Uiso   1.00
O4     O     0.23163   0.66379   0.76420   0.00000  Uiso   1.00
O5     O     0.23782   0.57235   0.80830   0.00000  Uiso   1.00
O6     O     0.10500   0.57632   0.78515   0.00000  Uiso   1.00
O7     O     0.11463   0.58473   0.88390   0.00000  Uiso   1.00
C8     C     0.08213   0.55607   0.82858   0.00000  Uiso   1.00
C9     C     0.18909   0.74242   0.93142   0.00000  Uiso   1.00
O10    O     0.18111   0.59327   0.93951   0.00000  Uiso   1.00
O11    O     0.13672   0.65043   0.99940   0.00000  Uiso   1.00
O12    O     0.03013   0.73849  -0.05512   0.00000  Uiso   1.00
O13    O     0.99634   0.64111   0.95691   0.00000  Uiso   1.00
O14    O     0.15986   0.72625   0.97192   0.00000  Uiso   1.00
O15    O     0.15416   0.72011   0.87370   0.00000  Uiso   1.00
O16    O     0.02253   0.67620   0.81740   0.00000  Uiso   1.00
O17    O     0.12093   0.70997   0.80756   0.00000  Uiso   1.00
C18    C     0.06001   0.70501   0.78565   0.00000  Uiso   1.00
C19    C     0.17125   0.60870   0.99471   0.00000  Uiso   1.00
C20    C     0.59445   0.72346   0.21915   0.00000  Uiso   1.00
Ho21   Ho    0.62600   0.82774   0.16420   0.00000  Uiso   1.00
C22    C     0.69644   1.02384   1.01455   0.00000  Uiso   1.00
Ho23   Ho    0.66099   0.93817   0.08978   0.00000  Uiso   1.00
O24    O     0.56426   0.73903   0.16570   0.00000  Uiso   1.00
O25    O     0.63899   0.76632   0.24613   0.00000  Uiso   1.00
O26    O     0.54764   0.76791   0.10658   0.00000  Uiso   1.00
O27    O     0.58468   0.85800   0.07251   0.00000  Uiso   1.00
C28    C     0.53760   0.80510   0.06412   0.00000  Uiso   1.00
C29    C     0.71280   0.95766   0.21398   0.00000  Uiso   1.00
O30    O     0.56310   0.89236   0.19023   0.00000  Uiso   1.00
O31    O     0.58620   0.97373   0.12461   0.00000  Uiso   1.00
O32    O     0.72594   0.01999   0.07134   0.00000  Uiso   1.00
O33    O     0.64397   0.98727   1.00079   0.00000  Uiso   1.00
O34    O     0.70643   0.99943   0.17656   0.00000  Uiso   1.00
O35    O     0.70274   0.90192   0.18172   0.00000  Uiso   1.00
O36    O     0.72666   0.87872   0.06938   0.00000  Uiso   1.00
O37    O     0.69345   0.78847   0.11815   0.00000  Uiso   1.00
C38    C     0.72963   0.82085   0.08525   0.00000  Uiso   1.00
C39    C     0.55463   0.94692   0.16441   0.00000  Uiso   1.00
C40    C     0.74783   0.21012   0.55722   0.00000  Uiso   1.00
Ho41   Ho    0.85287   0.16992   0.60377   0.00000  Uiso   1.00
C42    C     0.97097  -0.00075   0.65128   0.00000  Uiso   1.00
Ho43   Ho    0.96028   0.11835   0.66924   0.00000  Uiso   1.00
O44    O     0.75895   0.15529   0.54526   0.00000  Uiso   1.00
O45    O     0.79576   0.24641   0.58884   0.00000  Uiso   1.00
O46    O     0.78605   0.10067   0.54558   0.00000  Uiso   1.00
O47    O     0.87915   0.07608   0.59328   0.00000  Uiso   1.00
C48    C     0.82040   0.06033   0.54886   0.00000  Uiso   1.00
C49    C     0.97526   0.22989   0.72090   0.00000  Uiso   1.00
O50    O     0.91084   0.18952   0.53053   0.00000  Uiso   1.00
O51    O     0.99820   0.15116   0.58743   0.00000  Uiso   1.00
O52    O     0.00962   0.03722   0.68930   0.00000  Uiso   1.00
O53    O     0.92579   1.02469   0.62127   0.00000  Uiso   1.00
O54    O     1.01038   0.19176   0.73953   0.00000  Uiso   1.00
O55    O     0.93809   0.21235   0.66238   0.00000  Uiso   1.00
O56    O     0.89948   0.09470   0.73741   0.00000  Uiso   1.00
O57    O     0.81613   0.13971   0.68774   0.00000  Uiso   1.00
C58    C     0.84490   0.11104   0.73490   0.00000  Uiso   1.00
C59    C     0.96853   0.17614   0.53756   0.00000  Uiso   1.00
C60    C     0.37528   0.19204   0.25811   0.00000  Uiso   1.00
Ho61   Ho    0.35602   0.29296   0.31573   0.00000  Uiso   1.00
C62    C     0.34076   0.47197   0.48445   0.00000  Uiso   1.00
Ho63   Ho    0.34665   0.39420   0.39658   0.00000  Uiso   1.00
O64    O     0.39388   0.20489   0.31678   0.00000  Uiso   1.00
O65    O     0.34507   0.23378   0.22846   0.00000  Uiso   1.00
O66    O     0.41233   0.23038   0.37600   0.00000  Uiso   1.00
O67    O     0.39460   0.31641   0.41400   0.00000  Uiso   1.00
C68    C     0.42485   0.26434   0.42326   0.00000  Uiso   1.00
C69    C     0.28682   0.43488   0.29303   0.00000  Uiso   1.00
O70    O     0.44111   0.35880   0.30276   0.00000  Uiso   1.00
O71    O     0.43335   0.43759   0.37094   0.00000  Uiso   1.00
O72    O     0.31601   0.48004   0.42647   0.00000  Uiso   1.00
O73    O     0.37125   0.42637   0.49271   0.00000  Uiso   1.00
O74    O     0.29332   0.46143   0.34436   0.00000  Uiso   1.00
O75    O     0.31226   0.37829   0.29592   0.00000  Uiso   1.00
O76    O     0.26037   0.33418   0.40635   0.00000  Uiso   1.00
O77    O     0.26738   0.25056   0.34490   0.00000  Uiso   1.00
C78    C     0.23827   0.27944   0.38004   0.00000  Uiso   1.00
C79    C     0.45937   0.41483   0.32944   0.00000  Uiso   1.00
C80    C     0.47636   0.79640   1.01894   0.00000  Uiso   1.00
C81    C     0.36738   0.81074   0.97144   0.00000  Uiso   1.00
C82    C     0.36733   0.74815  -0.02225   0.00000  Uiso   1.00
S83    S     0.29611   0.83563   0.94818   0.00000  Uiso   1.00
S84    S     0.29918   0.69865  -0.03980   0.00000  Uiso   1.00
S85    S     0.43764   0.85920   0.99485   0.00000  Uiso   1.00
S86    S     0.43412   0.72175   0.01018   0.00000  Uiso   1.00
C87    C     0.25747   0.75951   0.94487   0.00000  Uiso   1.00
C88    C     0.39161   0.13497   0.23221   0.00000  Uiso   1.00
C89    C     0.44520   0.04209   0.23229   0.00000  Uiso   1.00
C90    C     0.43916   0.06531   0.17333   0.00000  Uiso   1.00
S91    S     0.48809  -0.01749   0.25172   0.00000  Uiso   1.00
S92    S     0.47470   0.03265   0.12236   0.00000  Uiso   1.00
S93    S     0.41542   0.07887   0.28542   0.00000  Uiso   1.00
S94    S     0.40271   0.12984   0.15642   0.00000  Uiso   1.00
C95    C     0.50573  -0.01814   0.17817   0.00000  Uiso   1.00
C96    C     0.68364   0.22452   0.54143   0.00000  Uiso   1.00
C97    C     0.56925   0.20890   0.51404   0.00000  Uiso   1.00
C98    C     0.58784   0.27192   0.52312   0.00000  Uiso   1.00
S99    S     0.49254   0.18088   0.48580   0.00000  Uiso   1.00
S100   S     0.53232   0.31922   0.50286   0.00000  Uiso   1.00
S101   S     0.62425   0.16163   0.52326   0.00000  Uiso   1.00
S102   S     0.66623   0.29930   0.54530   0.00000  Uiso   1.00
C103   C     0.47561   0.25559   0.47584   0.00000  Uiso   1.00
C104   C     0.81576   0.09915   0.78985   0.00000  Uiso   1.00
C105   C     0.74189   0.08550   0.86095   0.00000  Uiso   1.00
C106   C     0.79946   0.08082   0.89692   0.00000  Uiso   1.00
S107   S     0.67853   0.07206   0.89511   0.00000  Uiso   1.00
S108   S     0.80514   1.06467   0.97422   0.00000  Uiso   1.00
S109   S     0.73643   0.10027   0.78323   0.00000  Uiso   1.00
S110   S     0.86215   1.08796   0.86198   0.00000  Uiso   1.00
C111   C     0.72495   0.05809   0.96639   0.00000  Uiso   1.00
C112   C     0.80262   0.01009   0.49993   0.00000  Uiso   1.00
C113   C     0.73824  -0.02158   0.39476   0.00000  Uiso   1.00
C114   C     0.79879   0.97632   0.39063   0.00000  Uiso   1.00
S115   S     0.68117  -0.02840   0.32800   0.00000  Uiso   1.00
S116   S     0.81311   0.96551   0.31742   0.00000  Uiso   1.00
S117   S     0.72339  -0.00520   0.46543   0.00000  Uiso   1.00
S118   S     0.85655   0.99428   0.45699   0.00000  Uiso   1.00
C119   C     0.73500   0.96608   0.28241   0.00000  Uiso   1.00
C120   C     0.33113   0.50551   0.53902   0.00000  Uiso   1.00
C121   C     0.31693   0.52498   0.64487   0.00000  Uiso   1.00
C122   C     0.30559   0.57744   0.61195   0.00000  Uiso   1.00
S123   S     0.30524   0.51918   0.71920   0.00000  Uiso   1.00
S124   S     0.28109   0.63522   0.64839   0.00000  Uiso   1.00
S125   S     0.33637   0.46518   0.60850   0.00000  Uiso   1.00
S126   S     0.31283   0.58018   0.53523   0.00000  Uiso   1.00
C127   C     0.28053   0.59090   0.71494   0.00000  Uiso   1.00
C128   C     0.19326   0.57321   0.05100   0.00000  Uiso   1.00
C129   C     0.20633   0.52983   0.15666   0.00000  Uiso   1.00
C130   C     0.24321   0.50122   0.12635   0.00000  Uiso   1.00
S131   S     0.20588   0.51292   0.23289   0.00000  Uiso   1.00
S132   S     0.28604   0.44891   0.16672   0.00000  Uiso   1.00
S133   S     0.16445   0.58307   0.11752   0.00000  Uiso   1.00
S134   S     0.24494   0.52060   0.05058   0.00000  Uiso   1.00
C135   C     0.25944   0.46224   0.23371   0.00000  Uiso   1.00
C136   C     0.17591   0.25195   0.39105   0.00000  Uiso   1.00
C137   C     0.07599   0.24640   0.42671   0.00000  Uiso   1.00
C138   C     0.09351   0.18859   0.43499   0.00000  Uiso   1.00
S139   S     0.01338   0.26198   0.45572   0.00000  Uiso   1.00
S140   S     0.05239   0.13578   0.47490   0.00000  Uiso   1.00
S141   S     0.12277   0.30218   0.39574   0.00000  Uiso   1.00
S142   S     0.16045   0.17529   0.41266   0.00000  Uiso   1.00
C143   C     0.00442   0.18888   0.48753   0.00000  Uiso   1.00
C144   C     0.97842   0.93343   0.64711   0.00000  Uiso   1.00
C145   C     0.03400   0.84449   0.67680   0.00000  Uiso   1.00
C146   C     0.97398   0.82597   0.68380   0.00000  Uiso   1.00
S147   S     0.08923   0.79889   0.70555   0.00000  Uiso   1.00
S148   S     0.95821   0.75838   0.72196   0.00000  Uiso   1.00
S149   S     0.05293   0.91706   0.65009   0.00000  Uiso   1.00
S150   S     0.92123   0.87668   0.66429   0.00000  Uiso   1.00
C151   C     0.03597   0.74778   0.73624   0.00000  Uiso   1.00
C152   C     1.03923   0.49775   0.82451   0.00000  Uiso   1.00
C153   C     0.97964   0.40347   0.76915   0.00000  Uiso   1.00
C154   C     1.01915   0.38410   0.81994   0.00000  Uiso   1.00
S155   S    -0.05852   0.34898   0.71275   0.00000  Uiso   1.00
S156   S     1.02826   0.30742   0.82413   0.00000  Uiso   1.00
S157   S    -0.02077   0.48214   0.76046   0.00000  Uiso   1.00
S158   S     1.06496   0.43871   0.87142   0.00000  Uiso   1.00
C159   C     0.97960   0.29135   0.75168   0.00000  Uiso   1.00
C160   C     0.77986   0.79323   0.06601   0.00000  Uiso   1.00
C161   C     0.87627   0.78440   0.03097   0.00000  Uiso   1.00
C162   C     0.84681   0.72466   1.03367   0.00000  Uiso   1.00
S163   S     0.94454   0.79694   0.00601   0.00000  Uiso   1.00
S164   S     0.88018   0.66539   1.01013   0.00000  Uiso   1.00
S165   S     0.84265   0.84418   0.05057   0.00000  Uiso   1.00
S166   S     0.77696   0.71353   1.05769   0.00000  Uiso   1.00
C167   C     0.94176   0.71826   0.99399   0.00000  Uiso   1.00
C168   C     0.58014   0.65980   0.24220   0.00000  Uiso   1.00
C169   C     0.53836   0.54804   0.24428   0.00000  Uiso   1.00
C170   C     0.56618   0.56588   0.30478   0.00000  Uiso   1.00
S171   S     0.49640   0.47511   0.22922   0.00000  Uiso   1.00
S172   S     0.55552   0.51400   0.36210   0.00000  Uiso   1.00
S173   S     0.54014   0.60236   0.18794   0.00000  Uiso   1.00
S174   S     0.60217   0.64159   0.32007   0.00000  Uiso   1.00
C175   C     0.50765   0.45952   0.30813   0.00000  Uiso   1.00
loop_
_geom_bond_atom_site_label_1
_geom_bond_atom_site_label_2
_geom_bond_distance
_geom_bond_site_symmetry_2
_ccdc_geom_bond_type
C0     O4      1.292   .     A
C0     O5      1.293   .     A
C0     C127    1.461   .     S
Ho1    O4      2.142   .     S
Ho1    O5      2.144   .     S
Ho1    O6      2.241   .     S
Ho1    O7      2.193   .     S
Ho1    O10     2.342   .     S
Ho1    O15     2.175   .     S
Ho1    O17     2.307   .     S
C2     O12     1.276   1_556 A
C2     O13     1.281   1_455 A
C2     C167    1.461   1_455 S
Ho3    O7      2.234   .     S
Ho3    O11     2.160   .     S
Ho3    O14     2.245   .     S
Ho3    O15     2.214   .     S
Ho3    O16     2.145   .     S
Ho3    O12     2.151   1_556 S
Ho3    O13     2.181   1_455 S
O6     C8      1.207   .     D
O7     C8      1.360   .     S
C8     C152    1.444   1_455 S
C9     O14     1.213   .     D
C9     O15     1.372   .     S
C9     C87     1.459   .     S
O10    C19     1.314   .     A
O11    C19     1.278   .     A
O12    C2      1.276   1_554 A
O12    Ho3     2.151   1_554 S
O13    C2      1.281   1_655 A
O13    Ho3     2.181   1_655 S
O16    C18     1.271   .     A
O17    C18     1.311   .     A
C18    C151    1.474   .     S
C19    C128    1.470   1_556 S
C20    O24     1.279   .     A
C20    O25     1.284   .     A
C20    C168    1.469   .     S
Ho21   O24     2.175   .     S
Ho21   O25     2.204   .     S
Ho21   O26     2.153   .     S
Ho21   O27     2.147   .     S
Ho21   O30     2.255   .     S
Ho21   O35     2.114   .     S
Ho21   O37     2.219   .     S
C22    O33     1.274   .     A
C22    O32     1.274   1_566 A
C22    C111    1.467   1_565 S
Ho23   O27     2.193   .     S
Ho23   O31     2.184   .     S
Ho23   O34     2.265   .     S
Ho23   O35     2.204   .     S
Ho23   O36     2.180   .     S
Ho23   O32     2.185   1_565 S
Ho23   O33     2.185   1_554 S
O26    C28     1.224   .     D
O27    C28     1.404   .     S
C28    C80     1.476   1_554 S
C29    O34     1.212   .     D
C29    O35     1.360   .     S
C29    C119    1.465   .     S
O30    C39     1.320   .     A
O31    C39     1.298   .     A
O32    C22     1.274   1_544 A
O32    Ho23    2.185   1_545 S
O33    Ho23    2.185   1_556 S
O36    C38     1.299   .     A
O37    C38     1.301   .     A
C38    C160    1.463   .     S
C39    C95     1.481   1_565 S
C40    O44     1.281   .     A
C40    O45     1.283   .     A
C40    C96     1.460   .     S
Ho41   O44     2.163   .     S
Ho41   O45     2.200   .     S
Ho41   O46     2.136   .     S
Ho41   O47     2.211   .     S
Ho41   O50     2.237   .     S
Ho41   O55     2.111   .     S
Ho41   O57     2.199   .     S
C42    O52     1.255   1_655 A
C42    O53     1.264   1_545 A
C42    C144    1.458   1_545 S
Ho43   O47     2.241   .     S
Ho43   O51     2.184   .     S
Ho43   O54     2.201   .     S
Ho43   O55     2.151   .     S
Ho43   O56     2.201   .     S
Ho43   O52     2.187   1_655 S
Ho43   O53     2.229   1_545 S
O46    C48     1.227   .     D
O47    C48     1.435   .     S
C48    C112    1.472   .     S
C49    O54     1.220   .     D
C49    O55     1.378   .     S
C49    C159    1.468   .     S
O50    C59     1.320   .     A
O51    C59     1.299   .     A
O52    C42     1.255   1_455 A
O52    Ho43    2.187   1_455 S
O53    C42     1.264   1_565 A
O53    Ho43    2.229   1_565 S
O56    C58     1.290   .     A
O57    C58     1.290   .     A
C58    C104    1.471   .     S
C59    C143    1.471   1_655 S
C60    O64     1.271   .     A
C60    O65     1.287   .     A
C60    C88     1.478   .     S
Ho61   O64     2.182   .     S
Ho61   O65     2.240   .     S
Ho61   O66     2.204   .     S
Ho61   O67     2.155   .     S
Ho61   O70     2.236   .     S
Ho61   O75     2.200   .     S
Ho61   O77     2.236   .     S
C62    O72     1.283   .     A
C62    O73     1.262   .     A
C62    C120    1.460   .     S
Ho63   O67     2.102   .     S
Ho63   O71     2.171   .     S
Ho63   O72     2.207   .     S
Ho63   O73     2.134   .     S
Ho63   O74     2.165   .     S
Ho63   O75     2.167   .     S
Ho63   O76     2.176   .     S
O66    C68     1.222   .     D
O67    C68     1.381   .     S
C68    C103    1.451   .     S
C69    O74     1.227   .     D
C69    O75     1.412   .     S
C69    C135    1.462   .     S
O70    C79     1.312   .     A
O71    C79     1.298   .     A
O76    C78     1.294   .     A
O77    C78     1.307   .     A
C78    C136    1.475   .     S
C79    C175    1.469   .     S
C80    S85     1.726   .     A
C80    S86     1.722   1_556 A
C80    C28     1.476   1_556 S
C81    S83     1.706   .     A
C81    S85     1.710   .     A
C81    C82     1.355   1_556 A
C82    S84     1.676   .     A
C82    S86     1.669   .     A
C82    C81     1.355   1_554 A
S83    C87     1.724   .     A
S84    C87     1.703   1_554 A
S86    C80     1.722   1_554 A
C87    S84     1.703   1_556 A
C88    S93     1.728   .     A
C88    S94     1.719   .     A
C89    C90     1.358   .     A
C89    S91     1.704   .     A
C89    S93     1.694   .     A
C90    S92     1.693   .     A
C90    S94     1.707   .     A
S91    C95     1.720   .     A
S92    C95     1.729   .     A
C95    C39     1.481   1_545 S
C96    S101    1.718   .     A
C96    S102    1.718   .     A
C97    C98     1.361   .     A
C97    S99     1.687   .     A
C97    S101    1.675   .     A
C98    S100    1.692   .     A
C98    S102    1.702   .     A
S99    C103    1.709   .     A
S100   C103    1.722   .     A
C104   S109    1.722   .     A
C104   S110    1.716   1_545 A
C105   C106    1.357   .     A
C105   S107    1.697   .     A
C105   S109    1.696   .     A
C106   S108    1.693   1_545 S
C106   S110    1.694   1_545 D
S107   C111    1.716   .     A
S108   C106    1.693   1_565 S
S108   C111    1.718   1_565 A
S110   C104    1.716   1_565 A
S110   C106    1.694   1_565 D
C111   S108    1.718   1_545 A
C111   C22     1.467   1_545 S
C112   S117    1.727   .     A
C112   S118    1.726   1_545 A
C113   S115    1.696   .     A
C113   S117    1.684   .     A
C113   C114    1.359   1_545 A
C114   S116    1.707   .     A
C114   S118    1.710   .     A
C114   C113    1.359   1_565 A
S115   C119    1.711   1_545 A
S116   C119    1.726   .     A
S118   C112    1.726   1_565 A
C119   S115    1.711   1_565 A
C120   S125    1.726   .     A
C120   S126    1.714   .     A
C121   C122    1.360   .     A
C121   S123    1.686   .     A
C121   S125    1.669   .     A
C122   S124    1.691   .     A
C122   S126    1.705   .     A
S123   C127    1.709   .     A
S124   C127    1.727   .     A
C128   S133    1.719   .     A
C128   S134    1.723   .     A
C128   C19     1.470   1_554 S
C129   C130    1.360   .     A
C129   S131    1.693   .     A
C129   S133    1.691   .     A
C130   S132    1.698   .     A
C130   S134    1.700   .     A
S131   C135    1.720   .     A
S132   C135    1.717   .     A
C136   S141    1.726   .     A
C136   S142    1.718   .     A
C137   C138    1.358   .     A
C137   S139    1.705   .     A
C137   S141    1.691   .     A
C138   S140    1.693   .     A
C138   S142    1.705   .     A
S139   C143    1.716   .     A
S140   C143    1.728   .     A
C143   C59     1.471   1_455 S
C144   S150    1.715   .     A
C144   S149    1.714   1_655 A
C144   C42     1.458   1_565 S
C145   S147    1.691   .     A
C145   S149    1.687   .     A
C145   C146    1.359   1_455 A
C146   S148    1.696   .     A
C146   S150    1.699   .     A
C146   C145    1.359   1_655 A
S147   C151    1.718   .     A
S148   C151    1.721   1_655 A
S149   C144    1.714   1_455 A
C151   S148    1.721   1_455 A
C152   S158    1.712   .     A
C152   S157    1.699   1_655 A
C152   C8      1.444   1_655 S
C153   C154    1.358   .     A
C153   S155    1.694   1_655 A
C153   S157    1.706   1_655 A
C154   S156    1.694   .     A
C154   S158    1.683   .     A
S155   C153    1.694   1_455 A
S155   C159    1.720   1_455 A
S156   C159    1.710   .     A
S157   C152    1.699   1_455 A
S157   C153    1.706   1_455 A
C159   S155    1.720   1_655 A
C160   S165    1.718   .     A
C160   S166    1.718   1_554 A
C161   S163    1.683   .     A
C161   S165    1.677   .     A
C161   C162    1.357   1_554 A
C162   S164    1.697   .     A
C162   S166    1.705   .     A
C162   C161    1.357   1_556 A
S163   C167    1.707   1_554 A
S164   C167    1.726   .     A
S166   C160    1.718   1_556 A
C167   S163    1.707   1_556 A
C167   C2      1.461   1_655 S
C168   S173    1.717   .     A
C168   S174    1.717   .     A
C169   C170    1.358   .     A
C169   S171    1.694   .     A
C169   S173    1.689   .     A
C170   S172    1.696   .     A
C170   S174    1.704   .     A
S171   C175    1.716   .     A
S172   C175    1.727   .     A
