data_lcy+N123+E70
_audit_creation_date              2025-01-21
_audit_creation_method            'Materials Studio'
_symmetry_space_group_name_H-M    'P1'
_symmetry_Int_Tables_number       1
_symmetry_cell_setting            triclinic
loop_
_symmetry_equiv_pos_as_xyz
  x,y,z
_cell_length_a                    18.7313
_cell_length_b                    14.8449
_cell_length_c                    17.5780
_cell_angle_alpha                 97.0832
_cell_angle_beta                  109.1514
_cell_angle_gamma                 91.6560
loop_
_atom_site_label
_atom_site_type_symbol
_atom_site_fract_x
_atom_site_fract_y
_atom_site_fract_z
_atom_site_U_iso_or_equiv
_atom_site_adp_type
_atom_site_occupancy
Ce0    Ce    0.23693   0.59417   0.91686   0.00000  Uiso   1.00
Ce1    Ce    0.06214   0.63045   0.94101   0.00000  Uiso   1.00
C2     C     0.17670   0.77305   0.96282   0.00000  Uiso   1.00
C3     C     0.34140   0.56843   0.84386   0.00000  Uiso   1.00
C4     C     0.06862   0.65236   0.76980   0.00000  Uiso   1.00
C5     C     0.12321   0.45312   0.86447   0.00000  Uiso   1.00
C6     C     0.92323   0.62025  -0.04142   0.00000  Uiso   1.00
C7     C     0.18320   0.57837   1.09165   0.00000  Uiso   1.00
O8     O     0.13069   0.77898  -0.00299   0.00000  Uiso   1.00
O9     O     0.15730   0.69900   0.90945   0.00000  Uiso   1.00
O10    O     0.29974   0.63504   0.83590   0.00000  Uiso   1.00
O11    O     0.33051   0.51271   0.88985   0.00000  Uiso   1.00
O12    O     0.14140   0.64296   0.80181   0.00000  Uiso   1.00
O13    O     0.02067   0.63703   0.80549   0.00000  Uiso   1.00
O14    O     0.16301   0.47228   0.82639   0.00000  Uiso   1.00
O15    O     0.14087   0.51067   0.93652   0.00000  Uiso   1.00
O16    O     0.96060   0.55206  -0.04873   0.00000  Uiso   1.00
O17    O    -0.04482   0.69555  -0.04542   0.00000  Uiso   1.00
O18    O     0.12290   0.62053   0.07114   0.00000  Uiso   1.00
O19    O     0.22216   0.55695   1.04282   0.00000  Uiso   1.00
Ce20   Ce    0.52290   1.01662   0.07262   0.00000  Uiso   1.00
Ce21   Ce    0.58728   0.83581   0.00730   0.00000  Uiso   1.00
C22    C     0.42822   0.85134  -0.05483   0.00000  Uiso   1.00
C23    C     0.40212   0.03468   0.15847   0.00000  Uiso   1.00
C24    C     0.65126   1.02379  -0.02325   0.00000  Uiso   1.00
C25    C     0.64198   0.97975   0.19771   0.00000  Uiso   1.00
C26    C     0.68228   0.70494  -0.00652   0.00000  Uiso   1.00
C27    C     0.48307   0.80027   0.11186   0.00000  Uiso   1.00
O28    O     0.45779   0.77983  -0.04553   0.00000  Uiso   1.00
O29    O     0.48222   0.91966  -0.04633   0.00000  Uiso   1.00
O30    O     0.43245  -0.02600   0.12513   0.00000  Uiso   1.00
O31    O     0.43228  -0.02799   0.12473   0.00000  Uiso   1.00
O32    O     0.61272   0.06728   0.01691   0.00000  Uiso   1.00
O33    O     0.65135   0.93715  -0.03538   0.00000  Uiso   1.00
O34    O     0.61441   0.05288   0.19961   0.00000  Uiso   1.00
O35    O     0.60009   0.91801   0.13127   0.00000  Uiso   1.00
O36    O     0.68470   0.75128   0.05928   0.00000  Uiso   1.00
O37    O     0.62600   0.71920  -0.06791   0.00000  Uiso   1.00
O38    O     0.52036   0.76193   0.06829   0.00000  Uiso   1.00
O39    O     0.47451   0.88850   0.12157   0.00000  Uiso   1.00
Ce40   Ce    0.93078   0.09090   0.52364   0.00000  Uiso   1.00
Ce41   Ce    0.83320   0.04346   0.65249   0.00000  Uiso   1.00
C42    C     0.78427  -0.02921   0.48492   0.00000  Uiso   1.00
C43    C     1.06526   0.08982   0.50046   0.00000  Uiso   1.00
C44    C     0.96865  -0.08206   0.64327   0.00000  Uiso   1.00
C45    C     0.98103   0.17817   0.68678   0.00000  Uiso   1.00
C46    C     0.78900   0.06005   0.78730   0.00000  Uiso   1.00
C47    C     0.77778   0.20441   0.55177   0.00000  Uiso   1.00
O48    O     0.74188  -0.01413   0.52215   0.00000  Uiso   1.00
O49    O     0.85459  -0.01943   0.53686   0.00000  Uiso   1.00
O50    O     1.02482   0.01718   0.49537   0.00000  Uiso   1.00
O51    O     0.03473   0.16422   0.51249   0.00000  Uiso   1.00
O52    O     0.97526  -0.03735   0.58653   0.00000  Uiso   1.00
O53    O     0.92508  -0.06032   0.68559   0.00000  Uiso   1.00
O54    O     1.02140   0.14687   0.65204   0.00000  Uiso   1.00
O55    O     0.90880   0.16053   0.63718   0.00000  Uiso   1.00
O56    O     0.84244   0.10698   0.77965   0.00000  Uiso   1.00
O57    O     0.75804   0.99921   0.72690   0.00000  Uiso   1.00
O58    O     0.76164   0.15291   0.59845   0.00000  Uiso   1.00
O59    O     0.83625   0.19681   0.52730   0.00000  Uiso   1.00
Ce60   Ce    0.49026   0.53481   0.44950   0.00000  Uiso   1.00
Ce61   Ce    0.38401   0.36142   0.46788   0.00000  Uiso   1.00
C62    C     0.53721   0.34235   0.49638   0.00000  Uiso   1.00
C63    C     0.48288   0.60527   0.31204   0.00000  Uiso   1.00
C64    C     0.42100   0.53092   0.60529   0.00000  Uiso   1.00
C65    C     0.33319   0.53248   0.37100   0.00000  Uiso   1.00
C66    C     0.29774   0.22549   0.48568   0.00000  Uiso   1.00
C67    C     0.43944   0.33094   0.31467   0.00000  Uiso   1.00
O68    O     0.48916   0.28060   0.46326   0.00000  Uiso   1.00
O69    O     0.50706   0.41722   0.52362   0.00000  Uiso   1.00
O70    O     0.50095   0.52398   0.32131   0.00000  Uiso   1.00
O71    O     0.47485   0.65207   0.37401   0.00000  Uiso   1.00
O72    O     0.46963   0.56658   0.57551   0.00000  Uiso   1.00
O73    O     0.37055   0.46472   0.56759   0.00000  Uiso   1.00
O74    O     0.37177   0.59865   0.41019   0.00000  Uiso   1.00
O75    O     0.37515   0.45995   0.37750   0.00000  Uiso   1.00
O76    O     0.27277   0.27727   0.43102   0.00000  Uiso   1.00
O77    O     0.36705   0.24272   0.53157   0.00000  Uiso   1.00
O78    O     0.41054   0.29071   0.35976   0.00000  Uiso   1.00
O79    O     0.46599   0.41650   0.33195   0.00000  Uiso   1.00
N80    N     0.30381   0.80124   0.95543   0.00000  Uiso   1.00
H81    H     0.35126   1.01279  -0.05559   0.00000  Uiso   1.00
C82    C     0.34943   0.86633  -0.05557   0.00000  Uiso   1.00
C83    C     0.32146   0.95118  -0.05101   0.00000  Uiso   1.00
C84    C     0.24209   0.83540   0.96869   0.00000  Uiso   1.00
S85    S     0.23725   0.95027  -0.03206   0.00000  Uiso   1.00
N86    N     0.41030   0.18588   0.22845   0.00000  Uiso   1.00
H87    H     0.51447   0.34983   0.19788   0.00000  Uiso   1.00
C88    C     0.44222   0.27061   0.24312   0.00000  Uiso   1.00
C89    C     0.48403   0.28572   0.19424   0.00000  Uiso   1.00
C90    C     0.42735   0.13338   0.17077   0.00000  Uiso   1.00
S91    S     0.48448   0.19019   0.12846   0.00000  Uiso   1.00
N92    N     0.65321   0.26268   0.52158   0.00000  Uiso   1.00
H93    H     0.80119   0.38221   0.51470   0.00000  Uiso   1.00
C94    C     0.72584   0.27499   0.52672   0.00000  Uiso   1.00
C95    C     0.74499   0.35988   0.51208   0.00000  Uiso   1.00
C96    C     0.61703   0.33801   0.50421   0.00000  Uiso   1.00
S97    S     0.67092   0.42814   0.49410   0.00000  Uiso   1.00
N98    N     0.70850   1.03528   0.87137   0.00000  Uiso   1.00
H99    H     0.84678   0.19892   0.91964   0.00000  Uiso   1.00
C100   C     0.76521   0.08152   0.85886   0.00000  Uiso   1.00
C101   C     0.79904   0.15451   0.91929   0.00000  Uiso   1.00
C102   C     0.69856   0.07248   0.94116   0.00000  Uiso   1.00
S103   S     0.75867   0.16756   0.99395   0.00000  Uiso   1.00
N104   N     0.69818   0.95934   0.34116   0.00000  Uiso   1.00
H105   H     0.88413  -0.05689   0.39624   0.00000  Uiso   1.00
C106   C     0.76681  -0.04684   0.39621   0.00000  Uiso   1.00
C107   C     0.82430  -0.05521   0.36167   0.00000  Uiso   1.00
C108   C     0.70417   0.95655   0.26592   0.00000  Uiso   1.00
S109   S     0.79442  -0.04982   0.25974   0.00000  Uiso   1.00
N110   N     0.37065   0.54740   0.71858   0.00000  Uiso   1.00
H111   H     0.55055   0.59089   0.74127   0.00000  Uiso   1.00
C112   C     0.42867   0.55932   0.69084   0.00000  Uiso   1.00
C113   C     0.49716   0.58151   0.75183   0.00000  Uiso   1.00
C114   C     0.39526   0.55896   0.80029   0.00000  Uiso   1.00
S115   S     0.48996   0.58790   0.84668   0.00000  Uiso   1.00
N116   N     0.26923   0.56111   0.23160   0.00000  Uiso   1.00
H117   H     0.08740   0.49506   0.15996   0.00000  Uiso   1.00
C118   C     0.20154   0.54575   0.17207   0.00000  Uiso   1.00
C119   C     0.14623   0.50900   0.19784   0.00000  Uiso   1.00
C120   C     0.26474   0.53558   0.30154   0.00000  Uiso   1.00
S121   S     0.17867   0.48835   0.29652   0.00000  Uiso   1.00
N122   N     0.17561   0.16403   0.48426   0.00000  Uiso   1.00
H123   H     0.33043   0.05206   0.53172   0.00000  Uiso   1.00
C124   C     0.24890   0.15390   0.49638   0.00000  Uiso   1.00
C125   C     0.27299   0.07192   0.52056   0.00000  Uiso   1.00
C126   C     0.14274   0.08935   0.49835   0.00000  Uiso   1.00
S127   S     0.20214   0.00385   0.52881   0.00000  Uiso   1.00
N128   N     1.01382   0.78560   0.71378   0.00000  Uiso   1.00
H129   H     0.02998   0.81345   0.53692   0.00000  Uiso   1.00
C130   C     1.00671   0.83205   0.65176   0.00000  Uiso   1.00
C131   C     0.03203   0.78735   0.59321   0.00000  Uiso   1.00
C132   C     0.04417   0.70604   0.70257   0.00000  Uiso   1.00
S133   S     0.06787   0.68606   0.61677   0.00000  Uiso   1.00
N134   N     1.06234   0.31105   0.77354   0.00000  Uiso   1.00
H135   H     1.01259   0.39571   0.92931   0.00000  Uiso   1.00
C136   C     1.06760   0.37336   0.83808   0.00000  Uiso   1.00
C137   C     1.01630   0.35483   0.87578   0.00000  Uiso   1.00
C138   C     1.00646   0.24562   0.76116   0.00000  Uiso   1.00
S139   S     0.95695   0.26047   0.82746   0.00000  Uiso   1.00
N140   N     0.79542   0.66533   0.95675   0.00000  Uiso   1.00
H141   H     0.73431   0.56013   0.08086   0.00000  Uiso   1.00
C142   C     0.74331   0.64534  -0.00891   0.00000  Uiso   1.00
C143   C     0.76354   0.57836   0.04025   0.00000  Uiso   1.00
C144   C     0.85335   0.61101  -0.02152   0.00000  Uiso   1.00
S145   S     0.84564   0.53230   0.03972   0.00000  Uiso   1.00
N146   N     0.47665   0.72456   0.22455   0.00000  Uiso   1.00
H147   H     0.38734   0.65025   0.03116   0.00000  Uiso   1.00
C148   C     0.44701   0.73503   0.14614   0.00000  Uiso   1.00
C149   C     0.40983   0.65659   0.09696   0.00000  Uiso   1.00
C150   C     0.46199   0.63753   0.23359   0.00000  Uiso   1.00
S151   S     0.41211   0.56630   0.14737   0.00000  Uiso   1.00
loop_
_geom_bond_atom_site_label_1
_geom_bond_atom_site_label_2
_geom_bond_distance
_geom_bond_site_symmetry_2
_ccdc_geom_bond_type
Ce0    O9      2.173   .     S
Ce0    O10     2.247   .     S
Ce0    O11     2.299   .     S
Ce0    O12     2.424   .     S
Ce0    O14     2.328   .     S
Ce0    O15     2.297   .     S
Ce0    O19     2.445   .     S
Ce1    O9      2.281   .     S
Ce1    O13     2.266   .     S
Ce1    O15     2.353   .     S
Ce1    O8      2.439   1_556 S
Ce1    O16     2.270   1_456 S
Ce1    O17     2.318   1_556 S
Ce1    O18     2.221   1_556 S
C2     O9      1.311   .     S
C2     C84     1.482   .     S
C2     O8      1.201   1_556 D
C3     O10     1.270   .     A
C3     O11     1.282   .     A
C3     C114    1.453   .     S
C4     O12     1.312   .     A
C4     O13     1.283   .     A
C4     C132    1.463   .     S
C5     O14     1.203   .     D
C5     O15     1.373   .     S
C5     C136    1.476   1_455 S
C6     O16     1.265   .     A
C6     C144    1.468   .     S
C6     O17     1.273   1_655 A
C7     O19     1.314   .     A
C7     O18     1.275   1_556 A
C7     C118    1.487   1_556 S
O8     Ce1     2.439   1_554 S
O8     C2      1.201   1_554 D
O16    Ce1     2.270   1_654 S
O17    Ce1     2.318   1_554 S
O17    C6      1.273   1_455 A
O18    Ce1     2.221   1_554 S
O18    C7      1.275   1_554 A
Ce20   O29     2.275   .     S
Ce20   O35     2.194   .     S
Ce20   O39     2.448   .     S
Ce20   O30     2.287   1_565 S
Ce20   O31     2.294   1_565 S
Ce20   O32     2.355   1_565 S
Ce20   O34     2.313   1_565 S
Ce21   O28     2.377   .     S
Ce21   O29     2.350   .     S
Ce21   O33     2.243   .     S
Ce21   O35     2.298   .     S
Ce21   O36     2.250   .     S
Ce21   O37     2.325   .     S
Ce21   O38     2.240   .     S
C22    O28     1.216   .     D
C22    O29     1.370   .     S
C22    C82     1.495   .     S
C23    O30     1.263   .     A
C23    O31     1.285   .     A
C23    C90     1.494   .     S
C24    O33     1.278   .     A
C24    O32     1.298   1_565 A
C24    C102    1.462   1_564 S
C25    O35     1.383   .     S
C25    C108    1.457   .     S
C25    O34     1.217   1_565 D
C26    O36     1.257   .     A
C26    O37     1.282   .     A
C26    C142    1.474   .     S
C27    O38     1.290   .     A
C27    O39     1.321   .     A
C27    C148    1.460   .     S
O30    Ce20    2.287   1_545 S
O31    Ce20    2.294   1_545 S
O32    Ce20    2.355   1_545 S
O32    C24     1.298   1_545 A
O34    Ce20    2.313   1_545 S
O34    C25     1.217   1_545 D
Ce40   O49     2.225   .     S
Ce40   O50     2.258   .     S
Ce40   O52     2.355   .     S
Ce40   O54     2.368   .     S
Ce40   O55     2.297   .     S
Ce40   O59     2.413   .     S
Ce40   O51     2.279   1_655 S
Ce41   O48     2.402   .     S
Ce41   O49     2.292   .     S
Ce41   O53     2.322   .     S
Ce41   O55     2.307   .     S
Ce41   O56     2.265   .     S
Ce41   O58     2.238   .     S
Ce41   O57     2.343   1_545 S
C42    O48     1.193   .     D
C42    O49     1.325   .     S
C42    C106    1.472   .     S
C43    O50     1.276   .     A
C43    O51     1.284   1_655 A
C43    C126    1.464   1_655 S
C44    O52     1.300   .     A
C44    O53     1.295   .     A
C44    C130    1.478   1_545 S
C45    O54     1.189   .     D
C45    O55     1.345   .     S
C45    C138    1.476   .     S
C46    O56     1.256   .     A
C46    C100    1.469   .     S
C46    O57     1.268   1_545 A
C47    O58     1.286   .     A
C47    O59     1.304   .     A
C47    C94     1.459   .     S
O51    Ce40    2.279   1_455 S
O51    C43     1.284   1_455 A
O57    Ce41    2.343   1_565 S
O57    C46     1.268   1_565 A
Ce60   O69     2.273   .     S
Ce60   O70     2.314   .     S
Ce60   O71     2.285   .     S
Ce60   O72     2.365   .     S
Ce60   O74     2.362   .     S
Ce60   O75     2.283   .     S
Ce60   O79     2.450   .     S
Ce61   O68     2.354   .     S
Ce61   O69     2.273   .     S
Ce61   O73     2.266   .     S
Ce61   O75     2.259   .     S
Ce61   O76     2.255   .     S
Ce61   O77     2.269   .     S
Ce61   O78     2.262   .     S
C62    O68     1.211   .     D
C62    O69     1.366   .     S
C62    C96     1.460   .     S
C63    O70     1.278   .     A
C63    O71     1.272   .     A
C63    C150    1.450   .     S
C64    O72     1.318   .     A
C64    O73     1.293   .     A
C64    C112    1.469   .     S
C65    O74     1.195   .     D
C65    O75     1.346   .     S
C65    C120    1.458   .     S
C66    O76     1.281   .     A
C66    O77     1.282   .     A
C66    C124    1.452   .     S
C67    O78     1.287   .     A
C67    O79     1.312   .     A
C67    C88     1.468   .     S
N80    C84     1.353   .     A
N80    C82     1.345   1_556 A
H81    C83     1.083   .     S
C82    C83     1.381   .     A
C82    N80     1.345   1_554 A
C83    S85     1.716   .     A
C84    S85     1.712   1_556 A
S85    C84     1.712   1_554 A
N86    C88     1.335   .     A
N86    C90     1.330   .     A
H87    C89     1.079   .     S
C88    C89     1.371   .     A
C89    S91     1.718   .     A
C90    S91     1.742   .     A
N92    C94     1.339   .     A
N92    C96     1.340   .     A
H93    C95     1.079   .     S
C94    C95     1.377   .     A
C95    S97     1.710   .     A
C96    S97     1.714   .     A
N98    C100    1.340   1_565 A
N98    C102    1.354   1_565 A
H99    C101    1.093   .     S
C100   C101    1.392   .     A
C100   N98     1.340   1_545 A
C101   S103    1.711   .     A
C102   S103    1.738   .     A
C102   N98     1.354   1_545 A
C102   C24     1.462   1_546 S
N104   C108    1.359   .     A
N104   C106    1.345   1_565 A
H105   C107    1.088   .     S
C106   C107    1.401   .     A
C106   N104    1.345   1_545 A
C107   S109    1.706   .     A
C108   S109    1.734   1_565 A
S109   C108    1.734   1_545 A
N110   C112    1.345   .     A
N110   C114    1.344   .     A
H111   C113    1.084   .     S
C112   C113    1.375   .     A
C113   S115    1.708   .     A
C114   S115    1.708   .     A
N116   C118    1.345   .     A
N116   C120    1.357   .     A
H117   C119    1.082   .     S
C118   C119    1.383   .     A
C118   C7      1.487   1_554 S
C119   S121    1.709   .     A
C120   S121    1.710   .     A
N122   C124    1.334   .     A
N122   C126    1.341   .     A
H123   C125    1.085   .     S
C124   C125    1.378   .     A
C125   S127    1.700   .     A
C126   S127    1.730   .     A
C126   C43     1.464   1_455 S
N128   C130    1.333   .     A
N128   C132    1.346   1_655 A
H129   C131    1.096   .     S
C130   C131    1.376   1_655 A
C130   C44     1.478   1_565 S
C131   S133    1.707   .     A
C131   C130    1.376   1_455 A
C132   S133    1.702   .     A
C132   N128    1.346   1_455 A
N134   C136    1.347   .     A
N134   C138    1.351   .     A
H135   C137    1.078   .     S
C136   C137    1.373   .     A
C136   C5      1.476   1_655 S
C137   S139    1.708   .     A
C138   S139    1.710   .     A
N140   C142    1.349   1_556 A
N140   C144    1.352   1_556 A
H141   C143    1.085   .     S
C142   C143    1.378   .     A
C142   N140    1.349   1_554 A
C143   S145    1.703   .     A
C144   S145    1.717   .     A
C144   N140    1.352   1_554 A
N146   C148    1.337   .     A
N146   C150    1.352   .     A
H147   C149    1.084   .     S
C148   C149    1.378   .     A
C149   S151    1.690   .     A
C150   S151    1.705   .     A
