data_lcy+N139+E220
_audit_creation_date              2025-01-21
_audit_creation_method            'Materials Studio'
_symmetry_space_group_name_H-M    'P1'
_symmetry_Int_Tables_number       1
_symmetry_cell_setting            triclinic
loop_
_symmetry_equiv_pos_as_xyz
  x,y,z
_cell_length_a                    20.2673
_cell_length_b                    18.9053
_cell_length_c                    18.7098
_cell_angle_alpha                 80.4910
_cell_angle_beta                  88.9888
_cell_angle_gamma                 85.2992
loop_
_atom_site_label
_atom_site_type_symbol
_atom_site_fract_x
_atom_site_fract_y
_atom_site_fract_z
_atom_site_U_iso_or_equiv
_atom_site_adp_type
_atom_site_occupancy
C0     C     1.03564   0.51011   0.80851   0.00000  Uiso   1.00
Sm1    Sm    0.13219   0.72512   0.98718   0.00000  Uiso   1.00
Sm2    Sm    0.13633   0.58864   0.82629   0.00000  Uiso   1.00
C3     C     0.17871   0.55734   0.96060   0.00000  Uiso   1.00
C4     C     0.21321   0.55099   0.71853   0.00000  Uiso   1.00
O5     O     0.20735   0.79921   0.93266   0.00000  Uiso   1.00
O6     O     0.24252   0.70858   1.00651   0.00000  Uiso   1.00
O7     O     0.09350   0.68865   0.76388   0.00000  Uiso   1.00
O8     O     0.12560   0.69331   0.87474   0.00000  Uiso   1.00
O9     O     0.04563   0.66523   1.03877   0.00000  Uiso   1.00
O10    O     1.02553   0.75606   0.95829   0.00000  Uiso   1.00
O11    O     0.03481   0.55000   0.85680   0.00000  Uiso   1.00
O12    O     1.08737   0.51234   0.76941   0.00000  Uiso   1.00
O13    O     0.15430   0.62252   0.93685   0.00000  Uiso   1.00
O14    O     0.18056   0.51212   0.91645   0.00000  Uiso   1.00
O15    O     0.23154   0.59125   0.76115   0.00000  Uiso   1.00
O16    O     0.15602   0.52960   0.73232   0.00000  Uiso   1.00
C17    C     0.25712   0.76477   0.96474   0.00000  Uiso   1.00
C18    C     0.09845   0.72554   0.81461   0.00000  Uiso   1.00
C19    C     1.00162   0.70694   1.00261   0.00000  Uiso   1.00
C20    C     0.58424   0.73587   0.20136   0.00000  Uiso   1.00
Sm21   Sm    0.69357   0.91943   0.13491   0.00000  Uiso   1.00
Sm22   Sm    0.60938   0.85954   0.11201   0.00000  Uiso   1.00
C23    C     0.74379   0.78593   0.07232   0.00000  Uiso   1.00
C24    C     0.50915   0.84444   1.02245   0.00000  Uiso   1.00
O25    O     0.68422   0.95473   1.01344   0.00000  Uiso   1.00
O26    O     0.75611   0.99996   1.06575   0.00000  Uiso   1.00
O27    O     0.54167   0.93809   0.16668   0.00000  Uiso   1.00
O28    O     0.62267   1.01001   0.15624   0.00000  Uiso   1.00
O29    O     0.70202   0.88314   0.25634   0.00000  Uiso   1.00
O30    O     0.77313   0.94894   0.20676   0.00000  Uiso   1.00
O31    O     0.62762   0.77605   0.21594   0.00000  Uiso   1.00
O32    O     0.55048   0.76369   0.14625   0.00000  Uiso   1.00
O33    O     0.76269   0.82825   0.11236   0.00000  Uiso   1.00
O34    O     0.68259   0.78841   0.05620   0.00000  Uiso   1.00
O35    O     0.54801   0.89428   0.00808   0.00000  Uiso   1.00
O36    O     0.52328   0.80332   0.08138   0.00000  Uiso   1.00
C37    C     0.73010   0.99603   1.00610   0.00000  Uiso   1.00
C38    C     0.56249   0.99960   0.17125   0.00000  Uiso   1.00
C39    C     0.75240   0.91491   0.26522   0.00000  Uiso   1.00
C40    C     0.84870   0.99861   0.51166   0.00000  Uiso   1.00
Sm41   Sm    0.98686   0.15269   0.65550   0.00000  Uiso   1.00
Sm42   Sm    0.88234   0.10951   0.57374   0.00000  Uiso   1.00
C43    C     0.96362   0.20324   0.49293   0.00000  Uiso   1.00
C44    C     0.76711   0.18872   0.53841   0.00000  Uiso   1.00
O45    O     0.93012   0.21662   0.73254   0.00000  Uiso   1.00
O46    O     1.01462   0.25861   0.67870   0.00000  Uiso   1.00
O47    O     0.83816   0.07180   0.68052   0.00000  Uiso   1.00
O48    O     0.89063   0.15388   0.72541   0.00000  Uiso   1.00
O49    O     0.97495   0.03540   0.66605   0.00000  Uiso   1.00
O50    O     1.03101   0.07435   0.74694   0.00000  Uiso   1.00
O51    O     0.90276  -0.00281   0.54523   0.00000  Uiso   1.00
O52    O     0.81138   1.05519   0.51424   0.00000  Uiso   1.00
O53    O     0.94536   0.22123   0.55332   0.00000  Uiso   1.00
O54    O     0.93411   0.15371   0.47277   0.00000  Uiso   1.00
O55    O     0.81344   0.21169   0.57058   0.00000  Uiso   1.00
O56    O     0.78186   0.12741   0.52126   0.00000  Uiso   1.00
C57    C     0.96707   0.26848   0.72108   0.00000  Uiso   1.00
C58    C     0.84686   0.10704   0.73170   0.00000  Uiso   1.00
C59    C     1.01111   1.02025   0.72289   0.00000  Uiso   1.00
C60    C     0.30704   0.44034   0.23061   0.00000  Uiso   1.00
Sm61   Sm    0.36534   0.27413   0.43754   0.00000  Uiso   1.00
Sm62   Sm    0.38306   0.37597   0.34676   0.00000  Uiso   1.00
C63    C     0.41832   0.22750   0.29475   0.00000  Uiso   1.00
C64    C     0.47505   0.47456   0.31174   0.00000  Uiso   1.00
O65    O     0.47104   0.30101   0.42438   0.00000  Uiso   1.00
O66    O     0.45082   0.21721   0.50786   0.00000  Uiso   1.00
O67    O     0.33718   0.44524   0.42525   0.00000  Uiso   1.00
O68    O     0.34772   0.35199   0.51492   0.00000  Uiso   1.00
O69    O     0.26138   0.30811   0.39447   0.00000  Uiso   1.00
O70    O     0.27381   0.21720   0.47566   0.00000  Uiso   1.00
O71    O     0.28957   0.38823   0.27637   0.00000  Uiso   1.00
O72    O     0.36216   0.46020   0.24640   0.00000  Uiso   1.00
O73    O     0.38680   0.20466   0.35258   0.00000  Uiso   1.00
O74    O     0.42911   0.29451   0.27901   0.00000  Uiso   1.00
O75    O     0.48045   0.42565   0.36628   0.00000  Uiso   1.00
O76    O     0.42426   0.47104   0.27484   0.00000  Uiso   1.00
C77    C     0.49421   0.25523   0.47579   0.00000  Uiso   1.00
C78    C     0.33526   0.41920   0.49303   0.00000  Uiso   1.00
C79    C     0.23354   0.25902   0.43483   0.00000  Uiso   1.00
C80    C     0.45178   0.83181   0.97997   0.00000  Uiso   1.00
C81    C     0.39862   0.88484   0.96136   0.00000  Uiso   1.00
C82    C     0.33514   0.86258   0.95063   0.00000  Uiso   1.00
C83    C     0.32459   0.78909   0.95822   0.00000  Uiso   1.00
C84    C     0.37875   0.73810   0.96922   0.00000  Uiso   1.00
C85    C     0.44153   0.75920   0.97958   0.00000  Uiso   1.00
O86    O     0.45967   0.98792  -0.06822   0.00000  Uiso   1.00
O87    O     0.35740   1.00256  -0.02277   0.00000  Uiso   1.00
N88    N     0.40653   0.96000  -0.04031   0.00000  Uiso   1.00
H89    H     0.37182   0.68135   0.97413   0.00000  Uiso   1.00
H90    H     0.48120   0.71762   0.99453   0.00000  Uiso   1.00
H91    H     0.29323   0.90231  -0.05861   0.00000  Uiso   1.00
C92    C     0.44641   0.17386   0.24980   0.00000  Uiso   1.00
C93    C     0.41884   0.10681   0.25045   0.00000  Uiso   1.00
C94    C     0.45604   0.05043   0.22325   0.00000  Uiso   1.00
C95    C     0.51946   0.05993   0.19398   0.00000  Uiso   1.00
C96    C     0.54366   0.12842   0.18815   0.00000  Uiso   1.00
C97    C     0.50774   0.18443   0.21553   0.00000  Uiso   1.00
O98    O     0.30586   0.14651   0.26437   0.00000  Uiso   1.00
O99    O     0.33846   0.03140   0.30766   0.00000  Uiso   1.00
N100   N     0.35318   0.09537   0.27778   0.00000  Uiso   1.00
H101   H     0.59179   0.13833   0.16424   0.00000  Uiso   1.00
H102   H     0.52998   0.23491   0.21352   0.00000  Uiso   1.00
H103   H     0.43569  -0.00112   0.22571   0.00000  Uiso   1.00
C104   C     0.70047   0.22451   0.52557   0.00000  Uiso   1.00
C105   C     0.65363   0.22246   0.58291   0.00000  Uiso   1.00
C106   C     0.58573   0.23259   0.56623   0.00000  Uiso   1.00
C107   C     0.56468   0.24724   0.49403   0.00000  Uiso   1.00
C108   C     0.61147   0.25430   0.43799   0.00000  Uiso   1.00
C109   C     0.67869   0.24133   0.45359   0.00000  Uiso   1.00
O110   O     0.72701   0.23167   0.67813   0.00000  Uiso   1.00
O111   O     0.63474   0.17561   0.70687   0.00000  Uiso   1.00
N112   N     0.67388   0.20659   0.65759   0.00000  Uiso   1.00
H113   H     0.59571   0.26527   0.38189   0.00000  Uiso   1.00
H114   H     0.71360   0.24054   0.40915   0.00000  Uiso   1.00
H115   H     0.54927   0.22921   0.60945   0.00000  Uiso   1.00
C116   C     0.80782   0.08965   0.80003   0.00000  Uiso   1.00
C117   C     0.81300   0.12461   0.86122   0.00000  Uiso   1.00
C118   C     0.78795   0.09327   0.92876   0.00000  Uiso   1.00
C119   C     0.75291   1.03177   0.93512   0.00000  Uiso   1.00
C120   C     0.74150   1.00225   0.87316   0.00000  Uiso   1.00
C121   C     0.76957   1.02988   0.80704   0.00000  Uiso   1.00
O122   O     0.81666   0.24583   0.80626   0.00000  Uiso   1.00
O123   O     0.87286   0.20787   0.90936   0.00000  Uiso   1.00
N124   N     0.83966   0.19311   0.85543   0.00000  Uiso   1.00
H125   H     0.71351   0.95538   0.87654   0.00000  Uiso   1.00
H126   H     0.76310   1.00220   0.76174   0.00000  Uiso   1.00
H127   H     0.79419   0.11805   0.97622   0.00000  Uiso   1.00
C128   C     0.83115   0.94678   0.46578   0.00000  Uiso   1.00
C129   C     0.87546   0.92792   0.41144   0.00000  Uiso   1.00
C130   C     0.84942   0.91590   0.34556   0.00000  Uiso   1.00
C131   C     0.78089   0.91581   0.33662   0.00000  Uiso   1.00
C132   C     0.73852   0.92201   0.39546   0.00000  Uiso   1.00
C133   C     0.76334   0.93878   0.45899   0.00000  Uiso   1.00
O134   O     0.98489   0.93546   0.36478   0.00000  Uiso   1.00
O135   O     0.97189   0.89771   0.48367   0.00000  Uiso   1.00
N136   N     0.94596   0.92446   0.42089   0.00000  Uiso   1.00
H137   H     0.68546  -0.07911   0.38989   0.00000  Uiso   1.00
H138   H     0.72860   0.95252   0.50018   0.00000  Uiso   1.00
H139   H     0.88230   0.90744   0.30095   0.00000  Uiso   1.00
C140   C     0.31531   0.46528   0.54747   0.00000  Uiso   1.00
C141   C     0.34382   0.45277   0.61789   0.00000  Uiso   1.00
C142   C     0.31139   0.48453   0.67333   0.00000  Uiso   1.00
C143   C     0.25328   0.52948   0.65881   0.00000  Uiso   1.00
C144   C     0.22855   0.54579   0.58815   0.00000  Uiso   1.00
C145   C     0.25974   0.51448   0.53276   0.00000  Uiso   1.00
O146   O     0.45094   0.40673   0.58475   0.00000  Uiso   1.00
O147   O     0.41864   0.37861   0.70032   0.00000  Uiso   1.00
N148   N     0.40480   0.40858   0.63402   0.00000  Uiso   1.00
H149   H     0.18331   0.58021   0.57644   0.00000  Uiso   1.00
H150   H     0.23760   0.52478   0.47941   0.00000  Uiso   1.00
H151   H     0.33028   0.47281   0.72828   0.00000  Uiso   1.00
C152   C     0.20490   0.53457   0.03414   0.00000  Uiso   1.00
C153   C     0.17269   0.48616   0.08667   0.00000  Uiso   1.00
C154   C     0.20638   0.45552   0.15118   0.00000  Uiso   1.00
C155   C     0.27024   0.47376   0.16439   0.00000  Uiso   1.00
C156   C     0.30096   0.52240   0.11195   0.00000  Uiso   1.00
C157   C     0.26913   0.55109   0.04708   0.00000  Uiso   1.00
O158   O     0.08628   0.40733   0.10980   0.00000  Uiso   1.00
O159   O     0.06513   0.51160   0.03470   0.00000  Uiso   1.00
N160   N     0.10685   0.46699   0.07507   0.00000  Uiso   1.00
H161   H     0.35087   0.53619   0.11969   0.00000  Uiso   1.00
H162   H     0.29591   0.58400   0.00533   0.00000  Uiso   1.00
H163   H     0.18293   0.41728   0.19106   0.00000  Uiso   1.00
C164   C     0.16150   0.25183   0.43651   0.00000  Uiso   1.00
C165   C     0.11535   0.30665   0.45469   0.00000  Uiso   1.00
C166   C     0.04857   0.29236   0.46620   0.00000  Uiso   1.00
C167   C     0.02721   0.22489   0.46016   0.00000  Uiso   1.00
C168   C     0.07250   0.17268   0.43779   0.00000  Uiso   1.00
C169   C     0.13901   0.18591   0.42662   0.00000  Uiso   1.00
O170   O     0.09614   0.43193   0.45589   0.00000  Uiso   1.00
O171   O     0.18928   0.37497   0.50649   0.00000  Uiso   1.00
N172   N     0.13606   0.37384   0.46904   0.00000  Uiso   1.00
H173   H     0.05778   0.11940   0.43493   0.00000  Uiso   1.00
H174   H     0.17370   0.14334   0.41316   0.00000  Uiso   1.00
H175   H     1.01406   0.33226   0.48498   0.00000  Uiso   1.00
C176   C     1.03236   0.94588   0.75492   0.00000  Uiso   1.00
C177   C     0.09875   0.92610   0.77701   0.00000  Uiso   1.00
C178   C     0.11875   0.85353   0.80018   0.00000  Uiso   1.00
C179   C     0.07389   0.80102   0.80298   0.00000  Uiso   1.00
C180   C     1.00819   0.82065   0.78200   0.00000  Uiso   1.00
C181   C     0.98747   0.89270   0.75817   0.00000  Uiso   1.00
O182   O     0.19339   0.97196   0.81928   0.00000  Uiso   1.00
O183   O     0.15461   1.02083   0.70915   0.00000  Uiso   1.00
N184   N     0.14788   0.97742   0.77002   0.00000  Uiso   1.00
H185   H     0.97369   0.77982   0.78177   0.00000  Uiso   1.00
H186   H     0.93677   0.90675   0.74065   0.00000  Uiso   1.00
H187   H     0.17076   0.83754   0.80929   0.00000  Uiso   1.00
C188   C     0.98499   0.46188   0.79794   0.00000  Uiso   1.00
C189   C     0.97799   0.39920   0.84946   0.00000  Uiso   1.00
C190   C     0.96532   0.33527   0.82478   0.00000  Uiso   1.00
C191   C     0.95655   0.33516   0.75080   0.00000  Uiso   1.00
C192   C     0.95287   0.40003   0.70233   0.00000  Uiso   1.00
C193   C     0.96667   0.46312   0.72590   0.00000  Uiso   1.00
O194   O    -0.03181   0.45324   0.95506   0.00000  Uiso   1.00
O195   O     0.01288   0.33950   0.96619   0.00000  Uiso   1.00
N196   N    -0.01027   0.39829   0.92504   0.00000  Uiso   1.00
H197   H     0.94605   0.40063   0.64490   0.00000  Uiso   1.00
H198   H     0.97184   0.51074   0.68583   0.00000  Uiso   1.00
H199   H     0.96804   0.28495   0.86209   0.00000  Uiso   1.00
C200   C     0.79539   0.73797   0.04427   0.00000  Uiso   1.00
C201   C     0.81941   0.75637   0.97264   0.00000  Uiso   1.00
C202   C     0.88678   0.73982   0.95838   0.00000  Uiso   1.00
C203   C     0.92950   0.70378   1.01313   0.00000  Uiso   1.00
C204   C     0.90300   0.67625   1.08067   0.00000  Uiso   1.00
C205   C     0.83641   0.69360   0.09613   0.00000  Uiso   1.00
O206   O     0.80496   0.83455   0.85961   0.00000  Uiso   1.00
O207   O     0.71501   0.79046   0.91554   0.00000  Uiso   1.00
N208   N     0.77829   0.79756   0.91605   0.00000  Uiso   1.00
H209   H     0.93493   0.64801   1.12379   0.00000  Uiso   1.00
H210   H     0.81881   0.67939   0.15129   0.00000  Uiso   1.00
H211   H     0.90706   0.75896   0.90542   0.00000  Uiso   1.00
C212   C     0.57568   0.66115   0.23640   0.00000  Uiso   1.00
C213   C     0.56871   0.60894   0.19120   0.00000  Uiso   1.00
C214   C     0.53973   0.54557   0.21883   0.00000  Uiso   1.00
C215   C     0.52029   0.53125   0.29126   0.00000  Uiso   1.00
C216   C     0.53349   0.57922   0.33811   0.00000  Uiso   1.00
C217   C     0.56074   0.64438   0.31059   0.00000  Uiso   1.00
O218   O     0.64563   0.64664   0.09868   0.00000  Uiso   1.00
O219   O     0.55648   0.59566   0.06811   0.00000  Uiso   1.00
N220   N     0.58912   0.62072   0.11655   0.00000  Uiso   1.00
H221   H     0.51754   0.56924   0.39419   0.00000  Uiso   1.00
H222   H     0.56512   0.68377   0.34582   0.00000  Uiso   1.00
H223   H     0.53020   0.50803   0.18295   0.00000  Uiso   1.00
loop_
_geom_bond_atom_site_label_1
_geom_bond_atom_site_label_2
_geom_bond_distance
_geom_bond_site_symmetry_2
_ccdc_geom_bond_type
C0     O12     1.267   .     A
C0     C188    1.464   .     S
C0     O11     1.268   1_655 A
Sm1    O5      2.269   .     S
Sm1    O6      2.259   .     S
Sm1    O8      2.291   .     S
Sm1    O9      2.279   .     S
Sm1    O13     2.301   .     S
Sm1    O10     2.244   1_455 S
Sm2    O7      2.175   .     S
Sm2    O11     2.272   .     S
Sm2    O14     2.186   .     S
Sm2    O15     2.264   .     S
Sm2    O16     2.247   .     S
Sm2    O12     2.231   1_455 S
C3     O13     1.299   .     A
C3     O14     1.281   .     A
C3     C152    1.467   1_556 S
C4     O15     1.269   .     A
C4     O16     1.267   .     A
C4     C143    1.462   .     S
O5     C17     1.259   .     A
O6     C17     1.263   .     A
O7     C18     1.277   .     A
O8     C18     1.296   .     A
O9     C19     1.267   1_455 A
O10    C19     1.261   .     A
O10    Sm1     2.244   1_655 S
O11    C0      1.268   1_455 A
O12    Sm2     2.231   1_655 S
C17    C83     1.475   .     S
C18    C179    1.455   .     S
C19    C203    1.476   .     S
C19    O9      1.267   1_655 A
C20    O31     1.269   .     A
C20    O32     1.263   .     A
C20    C212    1.478   .     S
Sm21   O28     2.227   .     S
Sm21   O29     2.268   .     S
Sm21   O30     2.278   .     S
Sm21   O33     2.222   .     S
Sm21   O25     2.267   1_554 S
Sm21   O26     2.282   1_554 S
Sm22   O27     2.292   .     S
Sm22   O31     2.308   .     S
Sm22   O32     2.250   .     S
Sm22   O34     2.277   .     S
Sm22   O35     2.300   .     S
Sm22   O36     2.246   .     S
C23    O33     1.267   .     A
C23    O34     1.277   .     A
C23    C200    1.474   .     S
C24    C80     1.477   .     S
C24    O35     1.269   1_556 A
C24    O36     1.262   1_556 A
O25    C37     1.254   .     A
O25    Sm21    2.267   1_556 S
O26    C37     1.258   .     A
O26    Sm21    2.282   1_556 S
O27    C38     1.285   .     A
O28    C38     1.270   .     A
O29    C39     1.253   .     A
O30    C39     1.258   .     A
O35    C24     1.269   1_554 A
O36    C24     1.262   1_554 A
C37    C119    1.472   .     S
C38    C95     1.492   1_565 S
C39    C131    1.468   .     S
C40    O52     1.266   .     A
C40    C128    1.473   .     S
C40    O51     1.269   1_565 A
Sm41   O45     2.269   .     S
Sm41   O46     2.235   .     S
Sm41   O48     2.330   .     S
Sm41   O49     2.226   .     S
Sm41   O50     2.218   .     S
Sm41   O53     2.259   .     S
Sm42   O47     2.207   .     S
Sm42   O51     2.278   .     S
Sm42   O54     2.218   .     S
Sm42   O55     2.282   .     S
Sm42   O56     2.253   .     S
Sm42   O52     2.245   1_545 S
C43    O53     1.273   .     A
C43    O54     1.262   .     A
C43    C167    1.476   1_655 S
C44    O55     1.267   .     A
C44    O56     1.264   .     A
C44    C104    1.465   .     S
O45    C57     1.270   .     A
O46    C57     1.259   .     A
O47    C58     1.276   .     A
O48    C58     1.294   .     A
O49    C59     1.282   1_545 A
O50    C59     1.280   1_545 A
O51    C40     1.269   1_545 A
O52    Sm42    2.245   1_565 S
C57    C191    1.459   .     S
C58    C116    1.496   .     S
C59    C176    1.467   .     S
C59    O49     1.282   1_565 A
C59    O50     1.280   1_565 A
C60    O71     1.264   .     A
C60    O72     1.262   .     A
C60    C155    1.479   .     S
Sm61   O65     2.242   .     S
Sm61   O66     2.280   .     S
Sm61   O68     2.234   .     S
Sm61   O69     2.273   .     S
Sm61   O70     2.266   .     S
Sm61   O73     2.239   .     S
Sm62   O67     2.263   .     S
Sm62   O71     2.301   .     S
Sm62   O72     2.274   .     S
Sm62   O74     2.284   .     S
Sm62   O75     2.314   .     S
Sm62   O76     2.268   .     S
C63    O73     1.277   .     A
C63    O74     1.288   .     A
C63    C92     1.493   .     S
C64    O75     1.258   .     A
C64    O76     1.262   .     A
C64    C215    1.466   .     S
O65    C77     1.253   .     A
O66    C77     1.262   .     A
O67    C78     1.283   .     A
O68    C78     1.275   .     A
O69    C79     1.261   .     A
O70    C79     1.262   .     A
C77    C107    1.464   .     S
C78    C140    1.477   .     S
C79    C164    1.477   .     S
C80    C81     1.417   .     A
C80    C85     1.406   .     A
C81    C82     1.414   .     A
C81    N88     1.438   1_556 S
C82    C83     1.407   .     A
C82    H91     1.083   1_556 S
C83    C84     1.395   .     A
C84    C85     1.390   .     A
C84    H89     1.082   .     S
C85    H90     1.084   .     S
O86    N88     1.301   .     A
O87    N88     1.300   .     A
N88    C81     1.438   1_554 S
H91    C82     1.083   1_554 S
C92    C93     1.425   .     A
C92    C97     1.402   .     A
C93    C94     1.414   .     A
C93    N100    1.437   .     S
C94    C95     1.402   .     A
C94    H103    1.083   .     S
C95    C96     1.409   .     A
C95    C38     1.492   1_545 S
C96    C97     1.397   .     A
C96    H101    1.083   .     S
C97    H102    1.083   .     S
O98    N100    1.301   .     A
O99    N100    1.302   .     A
C104   C105    1.418   .     A
C104   C109    1.402   .     A
C105   C106    1.407   .     A
C105   N112    1.440   .     S
C106   C107    1.400   .     A
C106   H115    1.083   .     S
C107   C108    1.399   .     A
C108   C109    1.392   .     A
C108   H113    1.084   .     S
C109   H114    1.083   .     S
O110   N112    1.300   .     A
O111   N112    1.302   .     A
C116   C117    1.423   .     A
C116   C121    1.409   1_545 A
C117   C118    1.409   .     A
C117   N124    1.431   .     S
C118   H127    1.084   .     S
C118   C119    1.399   1_545 A
C119   C120    1.397   .     A
C119   C118    1.399   1_565 A
C120   C121    1.392   .     A
C120   H125    1.084   .     S
C121   H126    1.082   .     S
C121   C116    1.409   1_565 A
O122   N124    1.301   .     A
O123   N124    1.302   .     A
C128   C129    1.415   .     A
C128   C133    1.405   .     A
C129   C130    1.409   .     A
C129   N136    1.438   .     S
C130   C131    1.402   .     A
C130   H139    1.083   .     S
C131   C132    1.398   .     A
C132   C133    1.392   .     A
C132   H137    1.085   1_565 S
C133   H138    1.083   .     S
O134   N136    1.301   .     A
O135   N136    1.301   .     A
H137   C132    1.085   1_545 S
C140   C141    1.424   .     A
C140   C145    1.402   .     A
C141   C142    1.409   .     A
C141   N148    1.441   .     S
C142   C143    1.398   .     A
C142   H151    1.085   .     S
C143   C144    1.399   .     A
C144   C145    1.394   .     A
C144   H149    1.084   .     S
C145   H150    1.083   .     S
O146   N148    1.304   .     A
O147   N148    1.301   .     A
C152   C153    1.417   .     A
C152   C157    1.398   .     A
C152   C3      1.467   1_554 S
C153   C154    1.411   .     A
C153   N160    1.440   .     S
C154   C155    1.403   .     A
C154   H163    1.082   .     S
C155   C156    1.404   .     A
C156   C157    1.392   .     A
C156   H161    1.083   .     S
C157   H162    1.082   .     S
O158   N160    1.301   .     A
O159   N160    1.301   .     A
C164   C165    1.418   .     A
C164   C169    1.403   .     A
C165   C166    1.408   .     A
C165   N172    1.437   .     S
C166   C167    1.403   .     A
C166   H175    1.083   1_455 S
C167   C168    1.402   .     A
C167   C43     1.476   1_455 S
C168   C169    1.397   .     A
C168   H173    1.084   .     S
C169   H174    1.083   .     S
O170   N172    1.301   .     A
O171   N172    1.300   .     A
H175   C166    1.083   1_655 S
C176   C181    1.403   .     A
C176   C177    1.417   1_655 A
C177   C178    1.398   .     A
C177   N184    1.436   .     S
C177   C176    1.417   1_455 A
C178   C179    1.394   .     A
C178   H187    1.081   .     S
C179   C180    1.398   1_455 A
C180   C181    1.394   .     A
C180   H185    1.084   .     S
C180   C179    1.398   1_655 A
C181   H186    1.083   .     S
O182   N184    1.301   .     A
O183   N184    1.301   .     A
C188   C189    1.414   .     A
C188   C193    1.400   .     A
C189   C190    1.407   .     A
C189   N196    1.435   1_655 S
C190   C191    1.399   .     A
C190   H199    1.081   .     S
C191   C192    1.397   .     A
C192   C193    1.388   .     A
C192   H197    1.084   .     S
C193   H198    1.083   .     S
O194   N196    1.302   .     A
O195   N196    1.301   .     A
N196   C189    1.435   1_455 S
C200   C205    1.408   .     A
C200   C201    1.416   1_554 A
C201   C202    1.406   .     A
C201   N208    1.440   .     S
C201   C200    1.416   1_556 A
C202   C203    1.403   .     A
C202   H211    1.083   .     S
C203   C204    1.400   .     A
C204   H209    1.084   .     S
C204   C205    1.399   1_556 A
C205   H210    1.084   .     S
C205   C204    1.399   1_554 A
O206   N208    1.302   .     A
O207   N208    1.301   .     A
C212   C213    1.419   .     A
C212   C217    1.405   .     A
C213   C214    1.396   .     A
C213   N220    1.436   .     S
C214   C215    1.394   .     A
C214   H223    1.085   .     S
C215   C216    1.405   .     A
C216   C217    1.407   .     A
C216   H221    1.083   .     S
C217   H222    1.083   .     S
O218   N220    1.299   .     A
O219   N220    1.303   .     A
