data_lcy+N394+E9
_audit_creation_date              2025-01-21
_audit_creation_method            'Materials Studio'
_symmetry_space_group_name_H-M    'P1'
_symmetry_Int_Tables_number       1
_symmetry_cell_setting            triclinic
loop_
_symmetry_equiv_pos_as_xyz
  x,y,z
_cell_length_a                    33.2030
_cell_length_b                    31.4144
_cell_length_c                    32.6520
_cell_angle_alpha                 95.5116
_cell_angle_beta                  96.4808
_cell_angle_gamma                 89.2863
loop_
_atom_site_label
_atom_site_type_symbol
_atom_site_fract_x
_atom_site_fract_y
_atom_site_fract_z
_atom_site_U_iso_or_equiv
_atom_site_adp_type
_atom_site_occupancy
Pr0    Pr    0.09361   0.67072   0.87068   0.00000  Uiso   1.00
Pr1    Pr    0.13094   0.61315   0.93522   0.00000  Uiso   1.00
O2     O     0.08272   0.64826   0.97242   0.00000  Uiso   1.00
O3     O     0.05862   0.69439   0.92475   0.00000  Uiso   1.00
O4     O     0.04866   0.69603   0.81992   0.00000  Uiso   1.00
O5     O     0.09920   0.73550   0.84689   0.00000  Uiso   1.00
O6     O     0.14757   0.67582   0.91581   0.00000  Uiso   1.00
O7     O     0.13568   0.72997   0.87931   0.00000  Uiso   1.00
C8     C     0.09107   0.56830   0.86653   0.00000  Uiso   1.00
C9     C     0.05829   0.67825   0.95979   0.00000  Uiso   1.00
C10    C     0.06713   0.73178   0.82134   0.00000  Uiso   1.00
C11    C     0.16585   0.56711   0.99464   0.00000  Uiso   1.00
C12    C     0.16779   0.61203   0.84375   0.00000  Uiso   1.00
C13    C     0.15995   0.71475   0.90509   0.00000  Uiso   1.00
O14    O     0.13906   0.63776   0.83162   0.00000  Uiso   1.00
O15    O     0.17178   0.59680   0.88021   0.00000  Uiso   1.00
O16    O     0.18100   0.60188   0.98599   0.00000  Uiso   1.00
O17    O     0.13375   0.55451   0.97139   0.00000  Uiso   1.00
O18    O     0.07515   0.60465   0.88631   0.00000  Uiso   1.00
O19    O     0.12535   0.56086   0.88113   0.00000  Uiso   1.00
Pr20   Pr    0.62360   0.87342   0.07599   0.00000  Uiso   1.00
Pr21   Pr    0.60556   0.80856   0.12740   0.00000  Uiso   1.00
O22    O     0.65708   0.77256   0.09643   0.00000  Uiso   1.00
O23    O     0.66846   0.82333   0.05380   0.00000  Uiso   1.00
O24    O     0.65955   0.92905   0.05917   0.00000  Uiso   1.00
O25    O     0.61205   0.90171   1.01409   0.00000  Uiso   1.00
O26    O     0.57673   0.82179   0.06510   0.00000  Uiso   1.00
O27    O     0.58077   0.86384   0.01549   0.00000  Uiso   1.00
C28    C     0.66148   0.84804   0.18162   0.00000  Uiso   1.00
C29    C     0.67706   0.78753   0.06912   0.00000  Uiso   1.00
C30    C     0.64105   0.92872   0.02261   0.00000  Uiso   1.00
C31    C     0.58952   0.74581   0.17352   0.00000  Uiso   1.00
C32    C     0.55597   0.89806   0.13678   0.00000  Uiso   1.00
C33    C     0.56200   0.83438   0.02653   0.00000  Uiso   1.00
O34    O     0.57504   0.91095   0.10779   0.00000  Uiso   1.00
O35    O     0.56086   0.86051   0.15045   0.00000  Uiso   1.00
O36    O     0.57114   0.74942   0.13752   0.00000  Uiso   1.00
O37    O     0.61563   0.77508   0.18675   0.00000  Uiso   1.00
O38    O     0.65067   0.86281   0.14224   0.00000  Uiso   1.00
O39    O     0.64454   0.81522   0.18792   0.00000  Uiso   1.00
Pr40   Pr    0.90298   0.15789   0.57848   0.00000  Uiso   1.00
Pr41   Pr    0.84854   0.11933   0.63990   0.00000  Uiso   1.00
O42    O     0.88994   0.16635   0.68567   0.00000  Uiso   1.00
O43    O     0.93030   0.19132   0.64036   0.00000  Uiso   1.00
O44    O     0.93083   0.20912   0.54537   0.00000  Uiso   1.00
O45    O     0.95822   0.14686   0.54405   0.00000  Uiso   1.00
O46    O     0.89735   0.09455   0.60382   0.00000  Uiso   1.00
O47    O     0.95279   0.12553   0.62279   0.00000  Uiso   1.00
C48    C     0.80941   0.17259   0.58711   0.00000  Uiso   1.00
C49    C     0.91834   0.19104   0.67673   0.00000  Uiso   1.00
C50    C     0.95974   0.18503   0.53452   0.00000  Uiso   1.00
C51    C     0.80498   0.08713   0.69378   0.00000  Uiso   1.00
C52    C     0.83549   0.08650   0.53873   0.00000  Uiso   1.00
C53    C     0.93402   0.09386   0.62615   0.00000  Uiso   1.00
O54    O     0.86389   0.11222   0.53192   0.00000  Uiso   1.00
O55    O     0.82336   0.08294   0.57527   0.00000  Uiso   1.00
O56    O     0.83375   0.06633   0.67807   0.00000  Uiso   1.00
O57    O     0.79723   0.12369   0.68055   0.00000  Uiso   1.00
O58    O     0.84682   0.18110   0.60911   0.00000  Uiso   1.00
O59    O     0.79695   0.13770   0.59222   0.00000  Uiso   1.00
Pr60   Pr    0.38669   0.41274   0.44513   0.00000  Uiso   1.00
Pr61   Pr    0.40160   0.34000   0.38739   0.00000  Uiso   1.00
O62    O     0.35097   0.30987   0.41766   0.00000  Uiso   1.00
O63    O     0.34080   0.36699   0.46390   0.00000  Uiso   1.00
O64    O     0.35392   0.47197   0.47103   0.00000  Uiso   1.00
O65    O     0.40136   0.44392   0.51063   0.00000  Uiso   1.00
O66    O     0.43120   0.35965   0.44992   0.00000  Uiso   1.00
O67    O     0.43135   0.40664   0.50405   0.00000  Uiso   1.00
C68    C     0.34522   0.37581   0.33761   0.00000  Uiso   1.00
C69    C     0.33171   0.32922   0.44638   0.00000  Uiso   1.00
C70    C     0.37281   0.47147   0.50742   0.00000  Uiso   1.00
C71    C     0.41788   0.26886   0.33946   0.00000  Uiso   1.00
C72    C     0.45357   0.42608   0.38391   0.00000  Uiso   1.00
C73    C     0.44783   0.37449   0.48935   0.00000  Uiso   1.00
O74    O     0.43589   0.44387   0.41470   0.00000  Uiso   1.00
O75    O     0.44703   0.38699   0.36752   0.00000  Uiso   1.00
O76    O     0.43594   0.27862   0.37555   0.00000  Uiso   1.00
O77    O     0.39184   0.29643   0.32656   0.00000  Uiso   1.00
O78    O     0.35789   0.39502   0.37796   0.00000  Uiso   1.00
O79    O     0.36104   0.34131   0.32806   0.00000  Uiso   1.00
C80    C     0.44575   0.79473   0.97765   0.00000  Uiso   1.00
N81    N     0.46375   0.82705   0.96162   0.00000  Uiso   1.00
N82    N     0.50197   0.83827   0.97513   0.00000  Uiso   1.00
C83    C     0.52358   0.81732   0.00493   0.00000  Uiso   1.00
N84    N     0.50580   0.78453   0.02020   0.00000  Uiso   1.00
N85    N     0.46775   0.77332   0.00671   0.00000  Uiso   1.00
C86    C     0.40247   0.78461   0.96645   0.00000  Uiso   1.00
N87    N     0.38521   0.75376  -0.01496   0.00000  Uiso   1.00
N88    N     0.34580   0.74530  -0.02324   0.00000  Uiso   1.00
C89    C     0.32195   0.76750   0.94969   0.00000  Uiso   1.00
N90    N     0.33913   0.79838   0.93095   0.00000  Uiso   1.00
N91    N     0.37867   0.80690   0.93929   0.00000  Uiso   1.00
C92    C     0.27861   0.75690   0.94030   0.00000  Uiso   1.00
N93    N     0.25403   0.77734   0.91224   0.00000  Uiso   1.00
N94    N     0.21544   0.76540   0.90221   0.00000  Uiso   1.00
C95    C     0.20007   0.73277   0.92008   0.00000  Uiso   1.00
N96    N     0.22451   0.71280   0.94843   0.00000  Uiso   1.00
N97    N     0.26295   0.72475   0.95848   0.00000  Uiso   1.00
C98    C     0.44153   0.15111   0.27577   0.00000  Uiso   1.00
N99    N     0.45531   0.16001   0.31632   0.00000  Uiso   1.00
N100   N     0.44785   0.19777   0.33612   0.00000  Uiso   1.00
C101   C     0.42615   0.22804   0.31625   0.00000  Uiso   1.00
N102   N     0.41210   0.21924   0.27566   0.00000  Uiso   1.00
N103   N     0.41991   0.18146   0.25568   0.00000  Uiso   1.00
C104   C     0.45112   0.10968   0.25420   0.00000  Uiso   1.00
N105   N     0.44595   0.10328   0.21225   0.00000  Uiso   1.00
N106   N     0.45725   0.06651   0.19291   0.00000  Uiso   1.00
C107   C     0.47370   0.03464   0.21481   0.00000  Uiso   1.00
N108   N     0.47829   0.04083   0.25676   0.00000  Uiso   1.00
N109   N     0.46728   0.07770   0.27608   0.00000  Uiso   1.00
C110   C     0.48999  -0.00396   0.19345   0.00000  Uiso   1.00
N111   N     0.50331   0.96238   0.21457   0.00000  Uiso   1.00
N112   N     0.52230   0.92953   0.19597   0.00000  Uiso   1.00
C113   C     0.52880   0.92941   0.15565   0.00000  Uiso   1.00
N114   N     0.51488   0.96274   0.13448   0.00000  Uiso   1.00
N115   N     0.49562  -0.00471   0.15292   0.00000  Uiso   1.00
C116   C     0.71739   0.25180   0.54438   0.00000  Uiso   1.00
N117   N     0.74748   0.26784   0.57321   0.00000  Uiso   1.00
N118   N     0.77971   0.24387   0.58402   0.00000  Uiso   1.00
C119   C     0.78288   0.20317   0.56636   0.00000  Uiso   1.00
N120   N     0.75349   0.18788   0.53660   0.00000  Uiso   1.00
N121   N     0.72160   0.21185   0.52556   0.00000  Uiso   1.00
C122   C     0.67822   0.27367   0.53754   0.00000  Uiso   1.00
N123   N     0.64823   0.25396   0.51118   0.00000  Uiso   1.00
N124   N     0.61104   0.27021   0.50765   0.00000  Uiso   1.00
C125   C     0.60213   0.30672   0.53051   0.00000  Uiso   1.00
N126   N     0.63216   0.32698   0.55669   0.00000  Uiso   1.00
N127   N     0.66957   0.31052   0.56035   0.00000  Uiso   1.00
C128   C     0.56056   0.32340   0.52532   0.00000  Uiso   1.00
N129   N     0.55003   0.36222   0.54330   0.00000  Uiso   1.00
N130   N     0.51275   0.37787   0.53449   0.00000  Uiso   1.00
C131   C     0.48486   0.35497   0.50777   0.00000  Uiso   1.00
N132   N     0.49531   0.31596   0.49079   0.00000  Uiso   1.00
N133   N     0.53227   0.30038   0.49957   0.00000  Uiso   1.00
C134   C     0.74943   0.04640   0.79158   0.00000  Uiso   1.00
N135   N     0.78572   0.03003   0.78244   0.00000  Uiso   1.00
N136   N     0.80268   0.04204   0.75034   0.00000  Uiso   1.00
C137   C     0.78418   0.07123   0.72648   0.00000  Uiso   1.00
N138   N     0.74787   0.08768   0.73557   0.00000  Uiso   1.00
N139   N     0.73059   0.07515   0.76735   0.00000  Uiso   1.00
C140   C     0.73173   0.03389   0.82780   0.00000  Uiso   1.00
N141   N     0.69103   0.03510   0.82939   0.00000  Uiso   1.00
N142   N     0.67525   0.02249   0.86202   0.00000  Uiso   1.00
C143   C     0.69968   1.00903   0.89451   0.00000  Uiso   1.00
N144   N     0.74037   1.00838   0.89308   0.00000  Uiso   1.00
N145   N     0.75608   1.02037   0.86024   0.00000  Uiso   1.00
C146   C     0.68263   0.99267   0.92948   0.00000  Uiso   1.00
N147   N     0.70621   0.98949   0.96584   0.00000  Uiso   1.00
N148   N     0.69211   0.97100   0.99638   0.00000  Uiso   1.00
C149   C     0.65406   0.95466   0.99153   0.00000  Uiso   1.00
N150   N     0.63032   0.95815   0.95532   0.00000  Uiso   1.00
N151   N     0.64425   0.97713   0.92494   0.00000  Uiso   1.00
C152   C     0.78495   0.01428   0.43149   0.00000  Uiso   1.00
N153   N     0.77948   1.00198   0.46934   0.00000  Uiso   1.00
N154   N     0.79459   0.02524   0.50394   0.00000  Uiso   1.00
C155   C     0.81589   0.06142   0.50173   0.00000  Uiso   1.00
N156   N     0.82107   0.07361   0.46389   0.00000  Uiso   1.00
N157   N     0.80576   0.05066   0.42948   0.00000  Uiso   1.00
C158   C     0.76961   0.98860   0.39309   0.00000  Uiso   1.00
N159   N     0.77043   0.00444   0.35588   0.00000  Uiso   1.00
N160   N     0.75699  -0.01874   0.32079   0.00000  Uiso   1.00
C161   C     0.74267   0.94115   0.32162   0.00000  Uiso   1.00
N162   N     0.74210   0.92522   0.35881   0.00000  Uiso   1.00
N163   N     0.75528   0.94849   0.39391   0.00000  Uiso   1.00
C164   C     0.72600   0.91596   0.28343   0.00000  Uiso   1.00
N165   N     0.71430   0.87506   0.28501   0.00000  Uiso   1.00
N166   N     0.69563   0.85300   0.25164   0.00000  Uiso   1.00
C167   C     0.68798   0.87085   0.21532   0.00000  Uiso   1.00
N168   N     0.70039   0.91153   0.21331   0.00000  Uiso   1.00
N169   N     0.71924   0.93368   0.24682   0.00000  Uiso   1.00
C170   C     0.32715   0.52853   0.61305   0.00000  Uiso   1.00
N171   N     0.31140   0.53864   0.57493   0.00000  Uiso   1.00
N172   N     0.32734   0.52249   0.54106   0.00000  Uiso   1.00
C173   C     0.35996   0.49609   0.54418   0.00000  Uiso   1.00
N174   N     0.37620   0.48676   0.58236   0.00000  Uiso   1.00
N175   N     0.36015   0.50269   0.61617   0.00000  Uiso   1.00
C176   C     0.30689   0.54259   0.64980   0.00000  Uiso   1.00
N177   N     0.31767   0.52621   0.68657   0.00000  Uiso   1.00
N178   N     0.29744   0.53703   0.71912   0.00000  Uiso   1.00
C179   C     0.26573   0.56466   0.71595   0.00000  Uiso   1.00
N180   N     0.25524   0.58115   0.67927   0.00000  Uiso   1.00
N181   N     0.27528   0.57024   0.64679   0.00000  Uiso   1.00
C182   C     0.24205   0.57665   0.75073   0.00000  Uiso   1.00
N183   N     0.21199   0.60577   0.74570   0.00000  Uiso   1.00
N184   N     0.18914   0.61671   0.77582   0.00000  Uiso   1.00
C185   C     0.19517   0.59907   0.81234   0.00000  Uiso   1.00
N186   N     0.22545   0.56992   0.81779   0.00000  Uiso   1.00
N187   N     0.24855   0.55889   0.78740   0.00000  Uiso   1.00
C188   C     0.21094   0.50824   0.09990   0.00000  Uiso   1.00
N189   N     0.18314   0.48789   0.07110   0.00000  Uiso   1.00
N190   N     0.16918   0.50615   1.03703   0.00000  Uiso   1.00
C191   C     0.18301   0.54509   1.03029   0.00000  Uiso   1.00
N192   N     0.21115   0.56511   0.05882   0.00000  Uiso   1.00
N193   N     0.22480   0.54708   0.09301   0.00000  Uiso   1.00
C194   C     0.22583   0.48891   0.13803   0.00000  Uiso   1.00
N195   N     0.24602   0.51302   0.17050   0.00000  Uiso   1.00
N196   N     0.26056   0.49550   0.20475   0.00000  Uiso   1.00
C197   C     0.25561   0.45313   0.20773   0.00000  Uiso   1.00
N198   N     0.23529   0.42903   0.17530   0.00000  Uiso   1.00
N199   N     0.22041   0.44664   0.14119   0.00000  Uiso   1.00
C200   C     0.27479   0.43299   0.24389   0.00000  Uiso   1.00
N201   N     0.28014   0.39000   0.24150   0.00000  Uiso   1.00
N202   N     0.30114   0.37180   0.27236   0.00000  Uiso   1.00
C203   C     0.31717   0.39575   0.30705   0.00000  Uiso   1.00
N204   N     0.31106   0.43869   0.30999   0.00000  Uiso   1.00
N205   N     0.29033   0.45700   0.27887   0.00000  Uiso   1.00
C206   C     0.22181   0.28019   0.47060   0.00000  Uiso   1.00
N207   N     0.23616   0.31790   0.49011   0.00000  Uiso   1.00
N208   N     0.27226   0.33222   0.48387   0.00000  Uiso   1.00
C209   C     0.29546   0.30938   0.45795   0.00000  Uiso   1.00
N210   N     0.28141   0.27128   0.43881   0.00000  Uiso   1.00
N211   N     0.24528   0.25680   0.44526   0.00000  Uiso   1.00
C212   C     0.18089   0.26628   0.47569   0.00000  Uiso   1.00
N213   N     0.16775   0.22629   0.46142   0.00000  Uiso   1.00
N214   N     0.13049   0.21401   0.46645   0.00000  Uiso   1.00
C215   C     0.10493   0.24149   0.48538   0.00000  Uiso   1.00
N216   N     0.11798   0.28157   0.49928   0.00000  Uiso   1.00
N217   N     0.15529   0.29373   0.49454   0.00000  Uiso   1.00
C218   C     0.06492   0.22732   0.49335   0.00000  Uiso   1.00
N219   N     0.03770   0.25589   0.50797   0.00000  Uiso   1.00
N220   N     0.00287   0.24260   0.51896   0.00000  Uiso   1.00
C221   C     0.99416   0.20026   0.51582   0.00000  Uiso   1.00
N222   N     0.02113   0.17177   0.50070   0.00000  Uiso   1.00
N223   N     0.05577   0.18507   0.48939   0.00000  Uiso   1.00
C224   C     0.97306  -0.01219   0.68781   0.00000  Uiso   1.00
N225   N     0.93506  -0.01022   0.66798   0.00000  Uiso   1.00
N226   N     0.92283   0.02411   0.64909   0.00000  Uiso   1.00
C227   C     0.94804   0.05781   0.64930   0.00000  Uiso   1.00
N228   N     0.98603   0.05616   0.66939   0.00000  Uiso   1.00
N229   N     0.99831   0.02170   0.68836   0.00000  Uiso   1.00
C230   C     0.98676   0.94897   0.70707   0.00000  Uiso   1.00
N231   N     0.02480   0.94634   0.72676   0.00000  Uiso   1.00
N232   N     0.03736   0.91070   0.74334   0.00000  Uiso   1.00
C233   C     0.01249   0.87630   0.74073   0.00000  Uiso   1.00
N234   N     0.97438   0.87894   0.72114   0.00000  Uiso   1.00
N235   N     0.96179   0.91463   0.70458   0.00000  Uiso   1.00
C236   C     0.02673   0.83738   0.75958   0.00000  Uiso   1.00
N237   N     1.00276   0.80220   0.75713   0.00000  Uiso   1.00
N238   N     0.01573   0.76772   0.77575   0.00000  Uiso   1.00
C239   C     0.05314   0.76733   0.79736   0.00000  Uiso   1.00
N240   N     0.07706   0.80234   0.79943   0.00000  Uiso   1.00
N241   N     0.06419   0.83662   0.78082   0.00000  Uiso   1.00
C242   C     0.03149   0.46333   0.80109   0.00000  Uiso   1.00
N243   N     0.01001   0.49428   0.82115   0.00000  Uiso   1.00
N244   N     0.02819   0.53009   0.83918   0.00000  Uiso   1.00
C245   C     0.06841   0.53622   0.83758   0.00000  Uiso   1.00
N246   N     0.08944   0.50577   0.81653   0.00000  Uiso   1.00
N247   N     0.07130   0.47025   0.79837   0.00000  Uiso   1.00
C248   C     0.01379   0.42120   0.78593   0.00000  Uiso   1.00
N249   N     0.03710   0.39077   0.76779   0.00000  Uiso   1.00
N250   N     0.02267   0.35167   0.75594   0.00000  Uiso   1.00
C251   C     0.98445   0.34118   0.76211   0.00000  Uiso   1.00
N252   N     0.96093   0.37158   0.78023   0.00000  Uiso   1.00
N253   N     0.97543   0.41086   0.79213   0.00000  Uiso   1.00
C254   C     0.96861   0.29839   0.74644   0.00000  Uiso   1.00
N255   N     0.93010   0.28663   0.75055   0.00000  Uiso   1.00
N256   N     0.91486   0.24980   0.73152   0.00000  Uiso   1.00
C257   C     0.93768   0.22338   0.70795   0.00000  Uiso   1.00
N258   N     0.97646   0.23476   0.70497   0.00000  Uiso   1.00
N259   N     0.99172   0.27126   0.72411   0.00000  Uiso   1.00
C260   C     0.78975   0.74070   0.04167   0.00000  Uiso   1.00
N261   N     0.77275   0.72661   0.07388   0.00000  Uiso   1.00
N262   N     0.73535   0.73895   0.08127   0.00000  Uiso   1.00
C263   C     0.71363   0.76547   0.05649   0.00000  Uiso   1.00
N264   N     0.73037   0.77841   0.02378   0.00000  Uiso   1.00
N265   N     0.76753   0.76617   0.01644   0.00000  Uiso   1.00
C266   C     0.83245   0.73235   0.03545   0.00000  Uiso   1.00
N267   N     0.84955   0.75447   0.00824   0.00000  Uiso   1.00
N268   N     0.88824   0.74863   1.00232   0.00000  Uiso   1.00
C269   C     0.91155   0.72039   1.02333   0.00000  Uiso   1.00
N270   N     0.89460   0.69806   1.05070   0.00000  Uiso   1.00
N271   N     0.85574   0.70421   1.05692   0.00000  Uiso   1.00
C272   C     0.95337   0.71277   1.01351   0.00000  Uiso   1.00
N273   N     0.97536   0.67851   1.02579   0.00000  Uiso   1.00
N274   N     1.01077   0.66895   1.01126   0.00000  Uiso   1.00
C275   C     0.02546   0.69351   0.98420   0.00000  Uiso   1.00
N276   N     0.00397   0.72842   0.97318   0.00000  Uiso   1.00
N277   N     0.96877   0.73790   0.98759   0.00000  Uiso   1.00
C278   C     0.56883   0.64257   0.23974   0.00000  Uiso   1.00
N279   N     0.58882   0.67770   0.25902   0.00000  Uiso   1.00
N280   N     0.59551   0.71077   0.23799   0.00000  Uiso   1.00
C281   C     0.58189   0.71005   0.19714   0.00000  Uiso   1.00
N282   N     0.56178   0.67504   0.17796   0.00000  Uiso   1.00
N283   N     0.55545   0.64185   0.19886   0.00000  Uiso   1.00
C284   C     0.56017   0.60659   0.26282   0.00000  Uiso   1.00
N285   N     0.54621   0.56909   0.24234   0.00000  Uiso   1.00
N286   N     0.53559   0.53729   0.26308   0.00000  Uiso   1.00
C287   C     0.53836   0.54195   0.30504   0.00000  Uiso   1.00
N288   N     0.55277   0.57929   0.32556   0.00000  Uiso   1.00
N289   N     0.56372   0.61097   0.30482   0.00000  Uiso   1.00
C290   C     0.52171   0.50917   0.32740   0.00000  Uiso   1.00
N291   N     0.51346   0.51879   0.36698   0.00000  Uiso   1.00
N292   N     0.49330   0.49131   0.38562   0.00000  Uiso   1.00
C293   C     0.48099   0.45304   0.36553   0.00000  Uiso   1.00
N294   N     0.49021   0.44288   0.32633   0.00000  Uiso   1.00
N295   N     0.51010   0.47055   0.30754   0.00000  Uiso   1.00
loop_
_geom_bond_atom_site_label_1
_geom_bond_atom_site_label_2
_geom_bond_distance
_geom_bond_site_symmetry_2
_ccdc_geom_bond_type
Pr0    O3      2.282   .     S
Pr0    O4      2.296   .     S
Pr0    O5      2.264   .     S
Pr0    O6      2.185   .     S
Pr0    O7      2.318   .     S
Pr0    O14     2.262   .     S
Pr0    O18     2.291   .     S
Pr1    O2      2.322   .     S
Pr1    O6      2.220   .     S
Pr1    O15     2.385   .     S
Pr1    O16     2.261   .     S
Pr1    O17     2.277   .     S
Pr1    O18     2.305   .     S
Pr1    O19     2.287   .     S
O2     C9      1.302   .     A
O3     C9      1.296   .     A
O4     C10     1.281   .     A
O5     C10     1.276   .     A
O6     C13     1.384   .     S
O7     C13     1.225   .     D
C8     O18     1.386   .     S
C8     O19     1.212   .     D
C8     C245    1.466   .     S
C9     C275    1.471   .     S
C10    C239    1.466   .     S
C11    O16     1.277   .     A
C11    O17     1.280   .     A
C11    C191    1.468   .     S
C12    O14     1.295   .     A
C12    O15     1.317   .     A
C12    C185    1.471   .     S
C13    C95     1.467   .     S
Pr20   O23     2.277   .     S
Pr20   O24     2.273   .     S
Pr20   O26     2.237   .     S
Pr20   O27     2.297   .     S
Pr20   O34     2.272   .     S
Pr20   O38     2.300   .     S
Pr20   O25     2.277   1_554 S
Pr21   O22     2.313   .     S
Pr21   O26     2.223   .     S
Pr21   O35     2.321   .     S
Pr21   O36     2.263   .     S
Pr21   O37     2.283   .     S
Pr21   O38     2.264   .     S
Pr21   O39     2.230   .     S
O22    C29     1.295   .     A
O23    C29     1.290   .     A
O24    C30     1.278   .     A
O25    Pr20    2.277   1_556 S
O25    C30     1.280   1_556 A
O26    C33     1.391   .     S
O27    C33     1.226   .     D
C28    O38     1.416   .     S
C28    O39     1.226   .     D
C28    C167    1.464   .     S
C29    C263    1.470   .     S
C30    O25     1.280   1_554 A
C30    C149    1.465   1_554 S
C31    O36     1.276   .     A
C31    O37     1.282   .     A
C31    C281    1.462   .     S
C32    O34     1.295   .     A
C32    O35     1.303   .     A
C32    C113    1.466   .     S
C33    C83     1.467   .     S
Pr40   O43     2.283   .     S
Pr40   O44     2.283   .     S
Pr40   O45     2.263   .     S
Pr40   O46     2.245   .     S
Pr40   O47     2.359   .     S
Pr40   O54     2.288   .     S
Pr40   O58     2.293   .     S
Pr41   O42     2.339   .     S
Pr41   O46     2.201   .     S
Pr41   O55     2.371   .     S
Pr41   O56     2.263   .     S
Pr41   O57     2.270   .     S
Pr41   O58     2.267   .     S
Pr41   O59     2.288   .     S
O42    C49     1.304   .     A
O43    C49     1.295   .     A
O44    C50     1.276   .     A
O45    C50     1.271   .     A
O46    C53     1.348   .     S
O47    C53     1.201   .     D
C48    O58     1.379   .     S
C48    O59     1.209   .     D
C48    C119    1.459   .     S
C49    C257    1.468   .     S
C50    C221    1.461   .     S
C51    O56     1.278   .     A
C51    O57     1.279   .     A
C51    C137    1.464   .     S
C52    O54     1.301   .     A
C52    O55     1.317   .     A
C52    C155    1.468   .     S
C53    C227    1.464   .     S
Pr60   O63     2.280   .     S
Pr60   O64     2.284   .     S
Pr60   O65     2.268   .     S
Pr60   O66     2.220   .     S
Pr60   O67     2.314   .     S
Pr60   O74     2.281   .     S
Pr60   O78     2.311   .     S
Pr61   O62     2.301   .     S
Pr61   O66     2.199   .     S
Pr61   O75     2.310   .     S
Pr61   O76     2.251   .     S
Pr61   O77     2.295   .     S
Pr61   O78     2.264   .     S
Pr61   O79     2.234   .     S
O62    C69     1.294   .     A
O63    C69     1.290   .     A
O64    C70     1.281   .     A
O65    C70     1.278   .     A
O66    C73     1.382   .     S
O67    C73     1.226   .     D
C68    O78     1.416   .     S
C68    O79     1.227   .     D
C68    C203    1.467   .     S
C69    C209    1.465   .     S
C70    C173    1.466   .     S
C71    O76     1.272   .     A
C71    O77     1.282   .     A
C71    C101    1.465   .     S
C72    O74     1.298   .     A
C72    O75     1.302   .     A
C72    C293    1.465   .     S
C73    C131    1.461   .     S
C80    N81     1.360   .     A
C80    C86     1.473   .     S
C80    N85     1.356   1_556 A
N81    N82     1.336   .     A
N82    C83     1.359   1_556 A
C83    N84     1.356   .     A
C83    N82     1.359   1_554 A
N84    N85     1.330   .     A
N85    C80     1.356   1_554 A
C86    N91     1.360   .     A
C86    N87     1.357   1_556 A
N87    N88     1.331   .     A
N87    C86     1.357   1_554 A
N88    C89     1.357   1_554 A
C89    N90     1.360   .     A
C89    C92     1.473   .     S
C89    N88     1.357   1_556 A
N90    N91     1.336   .     A
C92    N93     1.360   .     A
C92    N97     1.357   .     A
N93    N94     1.335   .     A
N94    C95     1.359   .     A
C95    N96     1.356   .     A
N96    N97     1.331   .     A
C98    N99     1.355   .     A
C98    N103    1.361   .     A
C98    C104    1.468   .     S
N99    N100    1.330   .     A
N100   C101    1.356   .     A
C101   N102    1.358   .     A
N102   N103    1.335   .     A
C104   N105    1.357   .     A
C104   N109    1.358   .     A
N105   N106    1.333   .     A
N106   C107    1.359   .     A
C107   N108    1.356   .     A
C107   C110    1.468   .     S
N108   N109    1.332   .     A
C110   N115    1.355   .     A
C110   N111    1.360   1_545 A
N111   N112    1.334   .     A
N111   C110    1.360   1_565 A
N112   C113    1.358   .     A
C113   N114    1.358   .     A
N114   N115    1.330   1_565 A
N115   N114    1.330   1_545 A
C116   N117    1.359   .     A
C116   N121    1.356   .     A
C116   C122    1.468   .     S
N117   N118    1.335   .     A
N118   C119    1.359   .     A
C119   N120    1.355   .     A
N120   N121    1.328   .     A
C122   N123    1.355   .     A
C122   N127    1.361   .     A
N123   N124    1.327   .     A
N124   C125    1.355   .     A
C125   N126    1.360   .     A
C125   C128    1.468   .     S
N126   N127    1.337   .     A
C128   N129    1.361   .     A
C128   N133    1.354   .     A
N129   N130    1.337   .     A
N130   C131    1.360   .     A
C131   N132    1.354   .     A
N132   N133    1.327   .     A
C134   N135    1.357   .     A
C134   N139    1.358   .     A
C134   C140    1.467   .     S
N135   N136    1.331   .     A
N136   C137    1.356   .     A
C137   N138    1.358   .     A
N138   N139    1.334   .     A
C140   N141    1.358   .     A
C140   N145    1.357   1_545 A
N141   N142    1.334   .     A
N142   C143    1.359   1_545 A
C143   N144    1.357   .     A
C143   C146    1.468   .     S
C143   N142    1.359   1_565 A
N144   N145    1.331   .     A
N145   C140    1.357   1_565 A
C146   N147    1.358   .     A
C146   N151    1.358   .     A
N147   N148    1.332   .     A
N148   C149    1.357   .     A
C149   N150    1.358   .     A
C149   C30     1.465   1_556 S
N150   N151    1.333   .     A
C152   N157    1.354   .     A
C152   N153    1.362   1_545 A
C152   C158    1.468   1_545 S
N153   C152    1.362   1_565 A
N153   N154    1.336   1_565 A
N154   C155    1.358   .     A
N154   N153    1.336   1_545 A
C155   N156    1.358   .     A
N156   N157    1.328   .     A
C158   N163    1.356   .     A
C158   C152    1.468   1_565 S
C158   N159    1.360   1_565 A
N159   N160    1.332   .     A
N159   C158    1.360   1_545 A
N160   C161    1.356   1_545 A
C161   N162    1.359   .     A
C161   C164    1.467   .     S
C161   N160    1.356   1_565 A
N162   N163    1.332   .     A
C164   N165    1.354   .     A
C164   N169    1.361   .     A
N165   N166    1.328   .     A
N166   C167    1.357   .     A
C167   N168    1.358   .     A
N168   N169    1.335   .     A
C170   N171    1.360   .     A
C170   N175    1.356   .     A
C170   C176    1.470   .     S
N171   N172    1.333   .     A
N172   C173    1.357   .     A
C173   N174    1.358   .     A
N174   N175    1.332   .     A
C176   N177    1.361   .     A
C176   N181    1.355   .     A
N177   N178    1.335   .     A
N178   C179    1.358   .     A
C179   N180    1.358   .     A
C179   C182    1.470   .     S
N180   N181    1.330   .     A
C182   N183    1.352   .     A
C182   N187    1.363   .     A
N183   N184    1.326   .     A
N184   C185    1.357   .     A
C185   N186    1.360   .     A
N186   N187    1.339   .     A
C188   N189    1.359   .     A
C188   N193    1.357   .     A
C188   C194    1.471   .     S
N189   N190    1.334   1_554 A
N190   C191    1.358   .     A
N190   N189    1.334   1_556 A
C191   N192    1.357   1_556 A
N192   N193    1.332   .     A
N192   C191    1.357   1_554 A
C194   N195    1.358   .     A
C194   N199    1.357   .     A
N195   N196    1.333   .     A
N196   C197    1.357   .     A
C197   N198    1.359   .     A
C197   C200    1.471   .     S
N198   N199    1.333   .     A
C200   N201    1.356   .     A
C200   N205    1.360   .     A
N201   N202    1.331   .     A
N202   C203    1.358   .     A
C203   N204    1.357   .     A
N204   N205    1.335   .     A
C206   N207    1.355   .     A
C206   N211    1.359   .     A
C206   C212    1.465   .     S
N207   N208    1.329   .     A
N208   C209    1.357   .     A
C209   N210    1.358   .     A
N210   N211    1.334   .     A
C212   N213    1.357   .     A
C212   N217    1.357   .     A
N213   N214    1.333   .     A
N214   C215    1.358   .     A
C215   N216    1.356   .     A
C215   C218    1.465   .     S
N216   N217    1.331   .     A
C218   N219    1.358   .     A
C218   N223    1.356   .     A
N219   N220    1.332   .     A
N220   C221    1.356   1_455 A
C221   N220    1.356   1_655 A
C221   N222    1.357   1_655 A
N222   N223    1.331   .     A
N222   C221    1.357   1_455 A
C224   N225    1.355   .     A
C224   N229    1.361   .     A
C224   C230    1.470   1_545 S
N225   N226    1.330   .     A
N226   C227    1.357   .     A
C227   N228    1.357   .     A
N228   N229    1.335   .     A
C230   N235    1.359   .     A
C230   C224    1.470   1_565 S
C230   N231    1.356   1_655 A
N231   N232    1.332   .     A
N231   C230    1.356   1_455 A
N232   C233    1.359   .     A
C233   C236    1.470   .     S
C233   N234    1.357   1_455 A
N234   N235    1.333   .     A
N234   C233    1.357   1_655 A
C236   N241    1.355   .     A
C236   N237    1.361   1_455 A
N237   C236    1.361   1_655 A
N237   N238    1.336   1_655 A
N238   C239    1.358   .     A
N238   N237    1.336   1_455 A
C239   N240    1.356   .     A
N240   N241    1.330   .     A
C242   N243    1.360   .     A
C242   N247    1.356   .     A
C242   C248    1.473   .     S
N243   N244    1.336   .     A
N244   C245    1.359   .     A
C245   N246    1.356   .     A
N246   N247    1.330   .     A
C248   N249    1.356   .     A
C248   N253    1.360   1_455 A
N249   N250    1.330   .     A
N250   C251    1.357   1_455 A
C251   N252    1.360   .     A
C251   C254    1.473   .     S
C251   N250    1.357   1_655 A
N252   N253    1.336   .     A
N253   C248    1.360   1_655 A
C254   N255    1.360   .     A
C254   N259    1.356   .     A
N255   N256    1.336   .     A
N256   C257    1.360   .     A
C257   N258    1.357   .     A
N258   N259    1.329   .     A
C260   N261    1.360   .     A
C260   N265    1.355   .     A
C260   C266    1.472   .     S
N261   N262    1.337   .     A
N262   C263    1.361   .     A
C263   N264    1.356   .     A
N264   N265    1.328   .     A
C266   N267    1.355   .     A
C266   N271    1.361   1_554 A
N267   N268    1.328   1_554 A
N268   C269    1.355   .     A
N268   N267    1.328   1_556 A
C269   N270    1.361   .     A
C269   C272    1.471   .     S
N270   N271    1.337   .     A
N271   C266    1.361   1_556 A
C272   N273    1.360   .     A
C272   N277    1.355   .     A
N273   N274    1.337   .     A
N274   C275    1.361   1_655 A
C275   N276    1.356   .     A
C275   N274    1.361   1_455 A
N276   N277    1.328   1_455 A
N277   N276    1.328   1_655 A
C278   N279    1.358   .     A
C278   N283    1.357   .     A
C278   C284    1.466   .     S
N279   N280    1.333   .     A
N280   C281    1.357   .     A
C281   N282    1.356   .     A
N282   N283    1.331   .     A
C284   N285    1.357   .     A
C284   N289    1.357   .     A
N285   N286    1.331   .     A
N286   C287    1.357   .     A
C287   N288    1.358   .     A
C287   C290    1.466   .     S
N288   N289    1.332   .     A
C290   N291    1.356   .     A
C290   N295    1.358   .     A
N291   N292    1.331   .     A
N292   C293    1.358   .     A
C293   N294    1.357   .     A
N294   N295    1.333   .     A
