data_lcy+N155+E8
_audit_creation_date              2025-01-21
_audit_creation_method            'Materials Studio'
_symmetry_space_group_name_H-M    'P1'
_symmetry_Int_Tables_number       1
_symmetry_cell_setting            triclinic
loop_
_symmetry_equiv_pos_as_xyz
  x,y,z
_cell_length_a                    23.6772
_cell_length_b                    20.8900
_cell_length_c                    21.8163
_cell_angle_alpha                 94.9005
_cell_angle_beta                  97.8607
_cell_angle_gamma                 98.1904
loop_
_atom_site_label
_atom_site_type_symbol
_atom_site_fract_x
_atom_site_fract_y
_atom_site_fract_z
_atom_site_U_iso_or_equiv
_atom_site_adp_type
_atom_site_occupancy
C0     C     0.24124   0.60556   0.80306   0.00000  Uiso   1.00
Ho1    Ho    0.17132   0.63047   0.87949   0.00000  Uiso   1.00
C2     C    -0.01267   0.67216   1.00527   0.00000  Uiso   1.00
Ho3    Ho    0.07771   0.65975   0.95271   0.00000  Uiso   1.00
O4     O     0.19482   0.56695   0.80634   0.00000  Uiso   1.00
O5     O     0.25372   0.65378   0.84560   0.00000  Uiso   1.00
O6     O     0.14006   0.53762   0.82208   0.00000  Uiso   1.00
O7     O     0.09007   0.58068   0.88683   0.00000  Uiso   1.00
C8     C     0.09526   0.52814   0.84484   0.00000  Uiso   1.00
C9     C     0.18954   0.71045   1.00093   0.00000  Uiso   1.00
O10    O     0.19425   0.57386   0.96067   0.00000  Uiso   1.00
O11    O     0.11734   0.59235   1.01144   0.00000  Uiso   1.00
O12    O     0.03283   0.71555   0.01571   0.00000  Uiso   1.00
O13    O     0.99243   0.62213   0.97012   0.00000  Uiso   1.00
O14    O     0.15348   0.68770   1.03034   0.00000  Uiso   1.00
O15    O     0.16397   0.71199   0.94229   0.00000  Uiso   1.00
O16    O     0.05750   0.71588   0.87434   0.00000  Uiso   1.00
O17    O     0.12513   0.68804   0.81409   0.00000  Uiso   1.00
C18    C     0.08379   0.72024   0.82587   0.00000  Uiso   1.00
C19    C     0.16249   0.56427   1.00509   0.00000  Uiso   1.00
C20    C     0.57342   0.75375   0.23241   0.00000  Uiso   1.00
Ho21   Ho    0.60784   0.83397   0.15517   0.00000  Uiso   1.00
C22    C     0.67506   0.95945   0.95799   0.00000  Uiso   1.00
Ho23   Ho    0.64467   0.90818   0.05605   0.00000  Uiso   1.00
O24    O     0.55167   0.75002   0.17529   0.00000  Uiso   1.00
O25    O     0.61348   0.80263   0.25020   0.00000  Uiso   1.00
O26    O     0.53615   0.75935   0.11447   0.00000  Uiso   1.00
O27    O     0.56984   0.83354   0.05831   0.00000  Uiso   1.00
C28    C     0.52569   0.78297   0.06549   0.00000  Uiso   1.00
C29    C     0.72392   0.93642   0.15780   0.00000  Uiso   1.00
O30    O     0.55252   0.91219   0.16328   0.00000  Uiso   1.00
O31    O     0.58879   0.97439   0.08934   0.00000  Uiso   1.00
O32    O     0.69964  -0.01906   0.01321   0.00000  Uiso   1.00
O33    O     0.63330   0.91382   0.95641   0.00000  Uiso   1.00
O34    O     0.73314   0.95181   0.10722   0.00000  Uiso   1.00
O35    O     0.66642   0.92011   0.15645   0.00000  Uiso   1.00
O36    O     0.69664   0.82978   0.04658   0.00000  Uiso   1.00
O37    O     0.67469   0.77701   0.12960   0.00000  Uiso   1.00
C38    C     0.70656   0.78967   0.08713   0.00000  Uiso   1.00
C39    C     0.55765   0.96492   0.13385   0.00000  Uiso   1.00
C40    C     0.73657   0.21597   0.54921   0.00000  Uiso   1.00
Ho41   Ho    0.82940   0.16972   0.56379   0.00000  Uiso   1.00
C42    C     0.97728   0.01092   0.67022   0.00000  Uiso   1.00
Ho43   Ho    0.91630   0.08440   0.61038   0.00000  Uiso   1.00
O44    O     0.73989   0.15614   0.53367   0.00000  Uiso   1.00
O45    O     0.78533   0.25441   0.56723   0.00000  Uiso   1.00
O46    O     0.84884   0.15714   0.47052   0.00000  Uiso   1.00
O47    O     0.84715   0.07571   0.52964   0.00000  Uiso   1.00
C48    C     0.85672   0.10023   0.47257   0.00000  Uiso   1.00
C49    C     0.93458   0.19852   0.68211   0.00000  Uiso   1.00
O50    O     0.92918   0.20530   0.56058   0.00000  Uiso   1.00
O51    O     0.97639   0.11842   0.55282   0.00000  Uiso   1.00
O52    O    -0.01782   0.07197   0.68636   0.00000  Uiso   1.00
O53    O     0.94297  -0.00956   0.61996   0.00000  Uiso   1.00
O54    O     0.95312   0.14989   0.69809   0.00000  Uiso   1.00
O55    O     0.91266   0.18918   0.61960   0.00000  Uiso   1.00
O56    O     0.84773   0.05880   0.66552   0.00000  Uiso   1.00
O57    O     0.81144   0.15178   0.65857   0.00000  Uiso   1.00
C58    C     0.81693   0.09966   0.68439   0.00000  Uiso   1.00
C59    C     0.97131   0.17620   0.54073   0.00000  Uiso   1.00
C60    C     0.39737   0.24305   0.25018   0.00000  Uiso   1.00
Ho61   Ho    0.36647   0.29694   0.34925   0.00000  Uiso   1.00
C62    C     0.32771   0.51035   0.48589   0.00000  Uiso   1.00
Ho63   Ho    0.34834   0.41475   0.41441   0.00000  Uiso   1.00
O64    O     0.42960   0.29152   0.28420   0.00000  Uiso   1.00
O65    O     0.34642   0.23290   0.26320   0.00000  Uiso   1.00
O66    O     0.42324   0.24722   0.40759   0.00000  Uiso   1.00
O67    O     0.40547   0.34541   0.43768   0.00000  Uiso   1.00
C68    C     0.43760   0.29480   0.44669   0.00000  Uiso   1.00
C69    C     0.29315   0.42771   0.30602   0.00000  Uiso   1.00
O70    O     0.43770   0.36894   0.32195   0.00000  Uiso   1.00
O71    O     0.42181   0.46028   0.38008   0.00000  Uiso   1.00
O72    O     0.30473   0.49968   0.42830   0.00000  Uiso   1.00
O73    O     0.36492   0.47437   0.50191   0.00000  Uiso   1.00
O74    O     0.29244   0.46456   0.35294   0.00000  Uiso   1.00
O75    O     0.32107   0.37422   0.31723   0.00000  Uiso   1.00
O76    O     0.27492   0.35446   0.44028   0.00000  Uiso   1.00
O77    O     0.29043   0.26007   0.39196   0.00000  Uiso   1.00
C78    C     0.26078   0.29342   0.42410   0.00000  Uiso   1.00
C79    C     0.44794   0.43166   0.34031   0.00000  Uiso   1.00
C80    C     0.37015   0.72567   1.04718   0.00000  Uiso   1.00
C81    C     0.34715   0.76092   1.00079   0.00000  Uiso   1.00
N82    N     0.38392   0.79886   0.97068   0.00000  Uiso   1.00
C83    C     0.44265   0.80394  -0.01406   0.00000  Uiso   1.00
C84    C     0.46554   0.76869   1.03295   0.00000  Uiso   1.00
N85    N     0.42802   0.73005   1.06139   0.00000  Uiso   1.00
N86    N     0.33468   0.69082   1.08031   0.00000  Uiso   1.00
C87    C     0.27661   0.68889   1.06886   0.00000  Uiso   1.00
C88    C     0.25260   0.72221   1.02109   0.00000  Uiso   1.00
N89    N     0.28861   0.75733   0.98768   0.00000  Uiso   1.00
H90    H     0.47078   0.83699  -0.03636   0.00000  Uiso   1.00
H91    H     0.24936   0.65952   1.09523   0.00000  Uiso   1.00
C92    C     0.49582   0.13688   0.19269   0.00000  Uiso   1.00
C93    C     0.45636   0.08134   0.16571   0.00000  Uiso   1.00
N94    N     0.39911   0.08448   0.15857   0.00000  Uiso   1.00
C95    C     0.37953   0.13944   0.17909   0.00000  Uiso   1.00
C96    C     0.41860   0.19381   0.20968   0.00000  Uiso   1.00
N97    N     0.47616   0.19120   0.21487   0.00000  Uiso   1.00
N98    N     0.55309   0.13437   0.19931   0.00000  Uiso   1.00
C99    C     0.57270   0.07888   0.18103   0.00000  Uiso   1.00
C100   C     0.53369   1.02246   0.15640   0.00000  Uiso   1.00
N101   N     0.47597   0.02506   0.14839   0.00000  Uiso   1.00
H102   H     0.33359   0.13916   0.17520   0.00000  Uiso   1.00
H103   H     0.61863   0.07849   0.18567   0.00000  Uiso   1.00
C104   C     0.60759   0.29890   0.52505   0.00000  Uiso   1.00
C105   C     0.56471   0.24726   0.53271   0.00000  Uiso   1.00
N106   N     0.58000   0.19217   0.55335   0.00000  Uiso   1.00
C107   C     0.63608   0.18473   0.56392   0.00000  Uiso   1.00
C108   C     0.67900   0.23348   0.55109   0.00000  Uiso   1.00
N109   N     0.66418   0.29069   0.53352   0.00000  Uiso   1.00
N110   N     0.59117   0.35363   0.50345   0.00000  Uiso   1.00
C111   C     0.53425   0.35743   0.48646   0.00000  Uiso   1.00
C112   C     0.49224   0.30292   0.48844   0.00000  Uiso   1.00
N113   N     0.50862   0.24984   0.51281   0.00000  Uiso   1.00
H114   H     0.64687   0.13928   0.57895   0.00000  Uiso   1.00
H115   H     0.52242   0.39985   0.46560   0.00000  Uiso   1.00
C116   C     0.73344   0.01323   0.79219   0.00000  Uiso   1.00
C117   C     0.74816   0.05620   0.84714   0.00000  Uiso   1.00
N118   N     0.78209   0.11431   0.84640   0.00000  Uiso   1.00
C119   C     0.80232   0.13107   0.79347   0.00000  Uiso   1.00
C120   C     0.78933   0.08700   0.73928   0.00000  Uiso   1.00
N121   N     0.75517   0.02901   0.74005   0.00000  Uiso   1.00
N122   N     0.69842   0.95593   0.79206   0.00000  Uiso   1.00
C123   C     0.67775   0.93917   0.84448   0.00000  Uiso   1.00
C124   C     0.69410   0.98071   0.90036   0.00000  Uiso   1.00
N125   N     0.72893   0.03864   0.90035   0.00000  Uiso   1.00
H126   H     0.83037   0.17701   0.79432   0.00000  Uiso   1.00
H127   H     0.65011   0.89280   0.84292   0.00000  Uiso   1.00
C128   C     0.81422   0.97746   0.33862   0.00000  Uiso   1.00
C129   C     0.83224   1.01398   0.29133   0.00000  Uiso   1.00
N130   N     0.86986   0.07006   0.30737   0.00000  Uiso   1.00
C131   C     0.88706   0.09333   0.36820   0.00000  Uiso   1.00
C132   C     0.86306   0.06131   0.41510   0.00000  Uiso   1.00
N133   N     0.82911   1.00246   0.39923   0.00000  Uiso   1.00
N134   N     0.77553   0.92228   0.32294   0.00000  Uiso   1.00
C135   C     0.75143   0.90423   0.26276   0.00000  Uiso   1.00
C136   C     0.76452   0.94425   0.21634   0.00000  Uiso   1.00
N137   N     0.80634   0.99725   0.23127   0.00000  Uiso   1.00
H138   H     0.91452   0.13996   0.37962   0.00000  Uiso   1.00
H139   H     0.71919   0.86132   0.25175   0.00000  Uiso   1.00
C140   C     0.32021   0.58065   0.64292   0.00000  Uiso   1.00
C141   C     0.26114   0.58371   0.63855   0.00000  Uiso   1.00
N142   N     0.22746   0.57417   0.58183   0.00000  Uiso   1.00
C143   C     0.24983   0.55907   0.52915   0.00000  Uiso   1.00
C144   C     0.30816   0.55129   0.53391   0.00000  Uiso   1.00
N145   N     0.34203   0.56353   0.59072   0.00000  Uiso   1.00
N146   N     0.35360   0.58876   0.69984   0.00000  Uiso   1.00
C147   C     0.33028   0.59910   0.75292   0.00000  Uiso   1.00
C148   C     0.27065   0.59936   0.74860   0.00000  Uiso   1.00
N149   N     0.23775   0.59215   0.69140   0.00000  Uiso   1.00
H150   H     0.22121   0.54717   0.48514   0.00000  Uiso   1.00
H151   H     0.35743   0.60427   0.79777   0.00000  Uiso   1.00
C152   C     0.24834   0.48953   0.12892   0.00000  Uiso   1.00
C153   C     0.20571   0.47208   0.16624   0.00000  Uiso   1.00
N154   N     0.15023   0.47778   0.14623   0.00000  Uiso   1.00
C155   C     0.13541   0.50203   0.09167   0.00000  Uiso   1.00
C156   C     0.17820   0.52405   0.05584   0.00000  Uiso   1.00
N157   N     0.23395   0.51624   0.07498   0.00000  Uiso   1.00
N158   N     0.30369   0.48186   0.14873   0.00000  Uiso   1.00
C159   C     0.31826   0.45862   0.20429   0.00000  Uiso   1.00
C160   C     0.27608   0.44455   0.24288   0.00000  Uiso   1.00
N161   N     0.22064   0.45135   0.22272   0.00000  Uiso   1.00
H162   H     0.09060   0.50664   1.07771   0.00000  Uiso   1.00
H163   H     0.36280   0.45365   0.21941   0.00000  Uiso   1.00
C164   C     0.11697   0.27022   0.47506   0.00000  Uiso   1.00
C165   C     0.10696   0.20276   0.47661   0.00000  Uiso   1.00
N166   N     0.14642   0.16596   0.46026   0.00000  Uiso   1.00
C167   C     0.19621   0.19366   0.44260   0.00000  Uiso   1.00
C168   C     0.20725   0.26141   0.44216   0.00000  Uiso   1.00
N169   N     0.16707   0.29812   0.45814   0.00000  Uiso   1.00
N170   N     0.07708   0.30660   0.49202   0.00000  Uiso   1.00
C171   C     1.02806   0.27830   0.51169   0.00000  Uiso   1.00
C172   C     1.01922   0.21085   0.51493   0.00000  Uiso   1.00
N173   N     0.05884   0.17513   0.49665   0.00000  Uiso   1.00
H174   H     0.22733   0.16327   0.43042   0.00000  Uiso   1.00
H175   H     0.99727   0.30805   0.52596   0.00000  Uiso   1.00
C176   C     0.04472   0.87107   0.71807   0.00000  Uiso   1.00
C177   C     1.02657   0.86551   0.77624   0.00000  Uiso   1.00
N178   N     0.99809   0.91100   0.80052   0.00000  Uiso   1.00
C179   C     0.98604   0.96159   0.76867   0.00000  Uiso   1.00
C180   C     1.00219   0.96614   0.70957   0.00000  Uiso   1.00
N181   N     0.03104   0.92057   0.68527   0.00000  Uiso   1.00
N182   N     0.07457   0.82606   0.69494   0.00000  Uiso   1.00
C183   C     0.08707   0.77574   0.72752   0.00000  Uiso   1.00
C184   C     0.06778   0.76944   0.78522   0.00000  Uiso   1.00
N185   N     1.03804   0.81488   0.80788   0.00000  Uiso   1.00
H186   H     0.96102   0.99576   0.78758   0.00000  Uiso   1.00
H187   H     0.11219   0.74160   0.70890   0.00000  Uiso   1.00
C188   C     0.98854   0.39067   0.76473   0.00000  Uiso   1.00
C189   C     0.00768   0.33853   0.79419   0.00000  Uiso   1.00
N190   N     0.05022   0.35099   0.84397   0.00000  Uiso   1.00
C191   C     0.07568   0.41307   0.86446   0.00000  Uiso   1.00
C192   C     0.05822   0.46491   0.83358   0.00000  Uiso   1.00
N193   N     1.01498   0.45249   0.78432   0.00000  Uiso   1.00
N194   N     0.94752   0.37820   0.71361   0.00000  Uiso   1.00
C195   C     0.92611   0.31602   0.68934   0.00000  Uiso   1.00
C196   C     0.94728   0.26376   0.71679   0.00000  Uiso   1.00
N197   N     0.98716   0.27636   0.76918   0.00000  Uiso   1.00
H198   H     0.11134   0.42201   0.90248   0.00000  Uiso   1.00
H199   H     0.89486   0.30754   0.64715   0.00000  Uiso   1.00
C200   C     0.82276   0.69798   1.04920   0.00000  Uiso   1.00
C201   C     0.87205   0.74254   0.07621   0.00000  Uiso   1.00
N202   N     0.86554   0.79648   0.11205   0.00000  Uiso   1.00
C203   C     0.81214   0.80883   0.12050   0.00000  Uiso   1.00
C204   C     0.76262   0.76648   0.09036   0.00000  Uiso   1.00
N205   N     0.76913   0.71153   0.05563   0.00000  Uiso   1.00
N206   N     0.82927   0.64374   1.01392   0.00000  Uiso   1.00
C207   C     0.88237   0.63280   1.00290   0.00000  Uiso   1.00
C208   C     0.93154   0.67917   1.02650   0.00000  Uiso   1.00
N209   N     0.92517   0.73282   0.06348   0.00000  Uiso   1.00
H210   H     0.80830   0.85315   0.14789   0.00000  Uiso   1.00
H211   H     0.88570   0.58948   0.97356   0.00000  Uiso   1.00
C212   C     0.54835   0.59522   0.29282   0.00000  Uiso   1.00
C213   C     0.48813   0.58797   0.28735   0.00000  Uiso   1.00
N214   N     0.46029   0.63889   0.27616   0.00000  Uiso   1.00
C215   C     0.48991   0.69707   0.26817   0.00000  Uiso   1.00
C216   C     0.54997   0.70454   0.26971   0.00000  Uiso   1.00
N217   N     0.57818   0.65310   0.28201   0.00000  Uiso   1.00
N218   N     0.57533   0.54364   0.30732   0.00000  Uiso   1.00
C219   C     0.54444   0.48580   0.31747   0.00000  Uiso   1.00
C220   C     0.48396   0.47910   0.31112   0.00000  Uiso   1.00
N221   N     0.45811   0.53069   0.29584   0.00000  Uiso   1.00
H222   H     0.46618   0.73569   0.25499   0.00000  Uiso   1.00
H223   H     0.56669   0.44715   0.33358   0.00000  Uiso   1.00
loop_
_geom_bond_atom_site_label_1
_geom_bond_atom_site_label_2
_geom_bond_distance
_geom_bond_site_symmetry_2
_ccdc_geom_bond_type
C0     O4      1.282   .     A
C0     O5      1.282   .     A
C0     C148    1.463   .     S
Ho1    O4      2.170   .     S
Ho1    O5      2.185   .     S
Ho1    O6      2.191   .     S
Ho1    O7      2.086   .     S
Ho1    O10     2.260   .     S
Ho1    O15     2.135   .     S
Ho1    O17     2.218   .     S
C2     O12     1.286   1_556 A
C2     O13     1.272   1_455 A
C2     C208    1.480   1_455 S
Ho3    O7      2.174   .     S
Ho3    O11     2.205   .     S
Ho3    O14     2.265   .     S
Ho3    O15     2.225   .     S
Ho3    O16     2.192   .     S
Ho3    O12     2.204   1_556 S
Ho3    O13     2.156   1_455 S
O6     C8      1.230   .     D
O7     C8      1.399   .     S
C8     C192    1.459   .     S
C9     O14     1.205   .     D
C9     O15     1.343   .     S
C9     C88     1.477   .     S
O10    C19     1.317   .     A
O11    C19     1.308   .     A
O12    C2      1.286   1_554 A
O12    Ho3     2.204   1_554 S
O13    C2      1.272   1_655 A
O13    Ho3     2.156   1_655 S
O16    C18     1.302   .     A
O17    C18     1.305   .     A
C18    C184    1.470   .     S
C19    C156    1.485   1_556 S
C20    O24     1.273   .     A
C20    O25     1.284   .     A
C20    C216    1.460   .     S
Ho21   O24     2.159   .     S
Ho21   O25     2.219   .     S
Ho21   O26     2.167   .     S
Ho21   O27     2.179   .     S
Ho21   O30     2.245   .     S
Ho21   O35     2.105   .     S
Ho21   O37     2.213   .     S
C22    O33     1.266   .     A
C22    C124    1.474   .     S
C22    O32     1.278   1_566 A
Ho23   O27     2.196   .     S
Ho23   O31     2.192   .     S
Ho23   O34     2.260   .     S
Ho23   O35     2.165   .     S
Ho23   O36     2.197   .     S
Ho23   O32     2.211   1_565 S
Ho23   O33     2.169   1_554 S
O26    C28     1.224   .     D
O27    C28     1.411   .     S
C28    C84     1.479   1_554 S
C29    O34     1.215   .     D
C29    O35     1.351   .     S
C29    C136    1.472   .     S
O30    C39     1.321   .     A
O31    C39     1.309   .     A
O32    C22     1.278   1_544 A
O32    Ho23    2.211   1_545 S
O33    Ho23    2.169   1_556 S
O36    C38     1.291   .     A
O37    C38     1.294   .     A
C38    C204    1.471   .     S
C39    C100    1.476   .     S
C40    O44     1.283   .     A
C40    O45     1.300   .     A
C40    C108    1.466   .     S
Ho41   O44     2.102   .     S
Ho41   O45     2.179   .     S
Ho41   O46     2.149   .     S
Ho41   O47     2.158   .     S
Ho41   O50     2.386   .     S
Ho41   O55     2.136   .     S
Ho41   O57     2.219   .     S
C42    O53     1.274   .     A
C42    O52     1.278   1_655 A
C42    C180    1.454   1_545 S
Ho43   O47     2.211   .     S
Ho43   O51     2.112   .     S
Ho43   O53     2.164   .     S
Ho43   O54     2.247   .     S
Ho43   O55     2.196   .     S
Ho43   O56     2.183   .     S
Ho43   O52     2.175   1_655 S
O46    C48     1.233   .     D
O47    C48     1.420   .     S
C48    C132    1.472   .     S
C49    O54     1.221   .     D
C49    O55     1.378   .     S
C49    C196    1.471   .     S
O50    C59     1.341   .     A
O51    C59     1.276   .     A
O52    C42     1.278   1_455 A
O52    Ho43    2.175   1_455 S
O56    C58     1.276   .     A
O57    C58     1.282   .     A
C58    C120    1.466   .     S
C59    C172    1.462   .     S
C60    O64     1.287   .     A
C60    O65     1.270   .     A
C60    C96     1.485   .     S
Ho61   O64     2.205   .     S
Ho61   O65     2.164   .     S
Ho61   O66     2.159   .     S
Ho61   O67     2.124   .     S
Ho61   O70     2.273   .     S
Ho61   O75     2.175   .     S
Ho61   O77     2.211   .     S
C62    O72     1.286   .     A
C62    O73     1.270   .     A
C62    C144    1.461   .     S
Ho63   O67     2.164   .     S
Ho63   O71     2.121   .     S
Ho63   O72     2.196   .     S
Ho63   O73     2.144   .     S
Ho63   O74     2.186   .     S
Ho63   O75     2.189   .     S
Ho63   O76     2.166   .     S
O66    C68     1.229   .     D
O67    C68     1.399   .     S
C68    C112    1.456   .     S
C69    O74     1.231   .     D
C69    O75     1.399   .     S
C69    C160    1.468   .     S
O70    C79     1.315   .     A
O71    C79     1.287   .     A
O76    C78     1.277   .     A
O77    C78     1.289   .     A
C78    C168    1.466   .     S
C79    C220    1.460   .     S
C80    C81     1.398   .     A
C80    N85     1.351   .     A
C80    N86     1.356   .     A
C81    N82     1.366   .     A
C81    N89     1.366   .     A
N82    C83     1.371   1_556 A
C83    H90     1.083   .     S
C83    N82     1.371   1_554 A
C83    C84     1.407   1_554 A
C84    N85     1.363   .     A
C84    C83     1.407   1_556 A
C84    C28     1.479   1_556 S
N86    C87     1.357   .     A
C87    C88     1.403   .     A
C87    H91     1.083   .     S
C88    N89     1.371   .     A
C92    C93     1.411   .     A
C92    N97     1.363   .     A
C92    N98     1.353   .     A
C93    N94     1.355   .     A
C93    N101    1.367   .     A
N94    C95     1.362   .     A
C95    C96     1.412   .     A
C95    H102    1.079   .     S
C96    N97     1.362   .     A
N98    C99     1.358   .     A
C99    H103    1.080   .     S
C99    C100    1.406   1_545 A
C100   C99     1.406   1_565 A
C100   N101    1.363   1_565 A
N101   C100    1.363   1_545 A
C104   C105    1.410   .     A
C104   N109    1.365   .     A
C104   N110    1.360   .     A
C105   N106    1.349   .     A
C105   N113    1.350   .     A
N106   C107    1.350   .     A
C107   C108    1.407   .     A
C107   H114    1.083   .     S
C108   N109    1.364   .     A
N110   C111    1.363   .     A
C111   C112    1.409   .     A
C111   H115    1.084   .     S
C112   N113    1.353   .     A
C116   C117    1.406   .     A
C116   N121    1.358   .     A
C116   N122    1.355   1_545 A
C117   N118    1.360   .     A
C117   N125    1.363   .     A
N118   C119    1.363   .     A
C119   C120    1.405   .     A
C119   H126    1.084   .     S
C120   N121    1.360   .     A
N122   C123    1.358   .     A
N122   C116    1.355   1_565 A
C123   C124    1.408   .     A
C123   H127    1.084   .     S
C124   N125    1.364   1_565 A
N125   C124    1.364   1_545 A
C128   C129    1.411   .     A
C128   N133    1.359   .     A
C128   N134    1.353   .     A
C129   N137    1.362   .     A
C129   N130    1.355   1_565 A
N130   C131    1.360   .     A
N130   C129    1.355   1_545 A
C131   C132    1.409   .     A
C131   H138    1.081   .     S
C132   N133    1.359   1_545 A
N133   C132    1.359   1_565 A
N134   C135    1.357   .     A
C135   C136    1.406   .     A
C135   H139    1.078   .     S
C136   N137    1.360   .     A
C140   C141    1.400   .     A
C140   N145    1.355   .     A
C140   N146    1.361   .     A
C141   N142    1.360   .     A
C141   N149    1.354   .     A
N142   C143    1.361   .     A
C143   C144    1.404   .     A
C143   H150    1.085   .     S
C144   N145    1.364   .     A
N146   C147    1.363   .     A
C147   C148    1.403   .     A
C147   H151    1.083   .     S
C148   N149    1.362   .     A
C152   C153    1.409   .     A
C152   N157    1.367   .     A
C152   N158    1.359   .     A
C153   N154    1.352   .     A
C153   N161    1.359   .     A
N154   C155    1.355   .     A
C155   C156    1.412   .     A
C155   H162    1.083   1_554 S
C156   N157    1.366   .     A
C156   C19     1.485   1_554 S
N158   C159    1.363   .     A
C159   C160    1.408   .     A
C159   H163    1.083   .     S
C160   N161    1.357   .     A
H162   C155    1.083   1_556 S
C164   C165    1.399   .     A
C164   N169    1.357   .     A
C164   N170    1.363   .     A
C165   N166    1.356   .     A
C165   N173    1.347   .     A
N166   C167    1.357   .     A
C167   C168    1.403   .     A
C167   H174    1.084   .     S
C168   N169    1.367   .     A
N170   C171    1.366   1_455 A
C171   C172    1.404   .     A
C171   H175    1.083   .     S
C171   N170    1.366   1_655 A
C172   N173    1.359   1_655 A
N173   C172    1.359   1_455 A
C176   N181    1.358   .     A
C176   N182    1.358   .     A
C176   C177    1.403   1_455 A
C177   N178    1.354   .     A
C177   N185    1.351   .     A
C177   C176    1.403   1_655 A
N178   C179    1.356   .     A
C179   C180    1.401   .     A
C179   H186    1.081   .     S
C180   N181    1.361   1_655 A
C180   C42     1.454   1_565 S
N181   C180    1.361   1_455 A
N182   C183    1.363   .     A
C183   C184    1.407   .     A
C183   H187    1.079   .     S
C184   N185    1.359   1_455 A
N185   C184    1.359   1_655 A
C188   N193    1.358   .     A
C188   N194    1.355   .     A
C188   C189    1.409   1_655 A
C189   N190    1.356   .     A
C189   C188    1.409   1_455 A
C189   N197    1.359   1_455 A
N190   C191    1.360   .     A
C191   C192    1.405   .     A
C191   H198    1.083   .     S
C192   N193    1.359   1_455 A
N193   C192    1.359   1_655 A
N194   C195    1.359   .     A
C195   C196    1.410   .     A
C195   H199    1.084   .     S
C196   N197    1.360   .     A
N197   C189    1.359   1_655 A
C200   N206    1.354   .     A
C200   C201    1.409   1_556 A
C200   N205    1.363   1_556 A
C201   N202    1.355   .     A
C201   N209    1.364   .     A
C201   C200    1.409   1_554 A
N202   C203    1.359   .     A
C203   C204    1.408   .     A
C203   H210    1.080   .     S
C204   N205    1.360   .     A
N205   C200    1.363   1_554 A
N206   C207    1.359   .     A
C207   C208    1.410   .     A
C207   H211    1.082   .     S
C208   N209    1.362   1_556 A
C208   C2      1.480   1_655 S
N209   C208    1.362   1_554 A
C212   C213    1.400   .     A
C212   N217    1.366   .     A
C212   N218    1.367   .     A
C213   N214    1.351   .     A
C213   N221    1.343   .     A
N214   C215    1.351   .     A
C215   C216    1.404   .     A
C215   H222    1.083   .     S
C216   N217    1.370   .     A
N218   C219    1.372   .     A
C219   C220    1.405   .     A
C219   H223    1.082   .     S
C220   N221    1.357   .     A
