data_lcy+N173+E15
_audit_creation_date              2025-01-21
_audit_creation_method            'Materials Studio'
_symmetry_space_group_name_H-M    'P1'
_symmetry_Int_Tables_number       1
_symmetry_cell_setting            triclinic
loop_
_symmetry_equiv_pos_as_xyz
  x,y,z
_cell_length_a                    18.4655
_cell_length_b                    18.8871
_cell_length_c                    15.4105
_cell_angle_alpha                 93.0893
_cell_angle_beta                  80.8074
_cell_angle_gamma                 100.7752
loop_
_atom_site_label
_atom_site_type_symbol
_atom_site_fract_x
_atom_site_fract_y
_atom_site_fract_z
_atom_site_U_iso_or_equiv
_atom_site_adp_type
_atom_site_occupancy
Gd0    Gd    0.08360   0.66653   0.85516   0.00000  Uiso   1.00
Gd1    Gd    0.08180   0.58193   0.94789   0.00000  Uiso   1.00
O2     O     0.00036   0.50146   0.89446   0.00000  Uiso   1.00
O3     O     0.03282   0.56760   0.77639   0.00000  Uiso   1.00
O4     O     0.17255   0.65239   0.75617   0.00000  Uiso   1.00
O5     O     0.17939   0.56161   0.83775   0.00000  Uiso   1.00
O6     O     0.11597   0.77876   0.79817   0.00000  Uiso   1.00
O7     O     0.02325   0.71652   0.76265   0.00000  Uiso   1.00
O8     O     0.18690   0.72862   0.91462   0.00000  Uiso   1.00
C9     C     0.06626   0.77523   0.75222   0.00000  Uiso   1.00
O10    O     0.15281   0.65702   1.02538   0.00000  Uiso   1.00
O11    O    -0.01553   0.68692   0.95534   0.00000  Uiso   1.00
C12    C     0.19965   0.59735   0.76553   0.00000  Uiso   1.00
O13    O    -0.02004   0.59449   1.03793   0.00000  Uiso   1.00
O14    O     0.14440   0.48908   0.94061   0.00000  Uiso   1.00
O15    O     0.10856   0.52750   0.06314   0.00000  Uiso   1.00
C16    C     0.00711   0.50588   0.81254   0.00000  Uiso   1.00
C17    C     0.14681   0.48694   1.01985   0.00000  Uiso   1.00
C18    C    -0.04896   0.64663   1.01901   0.00000  Uiso   1.00
C19    C     0.20059   0.70670   0.98617   0.00000  Uiso   1.00
Gd20   Gd    0.62532   0.83066   0.09331   0.00000  Uiso   1.00
Gd21   Gd    0.55800   0.91522   0.17008   0.00000  Uiso   1.00
O22    O     0.45961   0.85361   0.11563   0.00000  Uiso   1.00
O23    O     0.52015   0.77218   0.04455   0.00000  Uiso   1.00
O24    O     0.59506   0.76481   0.21393   0.00000  Uiso   1.00
O25    O     0.53216   0.84394   0.28912   0.00000  Uiso   1.00
O26    O     0.69626   0.75626   0.02093   0.00000  Uiso   1.00
O27    O     0.65601   0.73694   0.15459   0.00000  Uiso   1.00
O28    O     0.72582   0.88681   0.14912   0.00000  Uiso   1.00
C29    C     0.70220   0.72373   0.08744   0.00000  Uiso   1.00
O30    O     0.66326   0.96552   0.22344   0.00000  Uiso   1.00
O31    O     0.64889   0.90192  -0.02045   0.00000  Uiso   1.00
C32    C     0.55586   0.78384   0.28428   0.00000  Uiso   1.00
O33    O     0.58548   0.98062   0.05007   0.00000  Uiso   1.00
O34    O     0.49716   1.00425   0.22710   0.00000  Uiso   1.00
O35    O     0.61161   0.01637   0.23469   0.00000  Uiso   1.00
C36    C     0.45952   0.79751   0.06643   0.00000  Uiso   1.00
C37    C     0.55478   0.04698   0.24452   0.00000  Uiso   1.00
C38    C     0.62570   0.96107  -0.01802   0.00000  Uiso   1.00
C39    C     0.72085   0.93548   0.20866   0.00000  Uiso   1.00
Gd40   Gd    0.93173   0.09948   0.61563   0.00000  Uiso   1.00
Gd41   Gd    0.86641   0.17441   0.56444   0.00000  Uiso   1.00
O42    O     0.90315   0.26328   0.65100   0.00000  Uiso   1.00
O43    O     0.96955   0.19483   0.70361   0.00000  Uiso   1.00
O44    O     1.02935   0.14042   0.52080   0.00000  Uiso   1.00
O45    O     0.96761   0.21114   0.46374   0.00000  Uiso   1.00
O46    O     0.94355   0.98389   0.57562   0.00000  Uiso   1.00
O47    O     0.00137   0.03725   0.67481   0.00000  Uiso   1.00
O48    O     0.89500   1.01333   0.51341   0.00000  Uiso   1.00
C49    C     0.98854   0.98030   0.62862   0.00000  Uiso   1.00
O50    O     0.82697   0.08628   0.47278   0.00000  Uiso   1.00
O51    O     0.83297   0.05959   0.71319   0.00000  Uiso   1.00
C52    C     1.02816   0.18824   0.46768   0.00000  Uiso   1.00
O53    O     0.77147   0.13769   0.67039   0.00000  Uiso   1.00
O54    O     0.80065   0.24892   0.51904   0.00000  Uiso   1.00
O55    O     0.78050   0.14077   0.47397   0.00000  Uiso   1.00
C56    C     0.94990   0.25587   0.69937   0.00000  Uiso   1.00
C57    C     0.75894   0.20072   0.48219   0.00000  Uiso   1.00
C58    C     0.77502   0.08790   0.72116   0.00000  Uiso   1.00
C59    C     0.85167   0.02781   0.46183   0.00000  Uiso   1.00
Gd60   Gd    0.42098   0.41216   0.30983   0.00000  Uiso   1.00
Gd61   Gd    0.43672   0.38509   0.46467   0.00000  Uiso   1.00
O62    O     0.37275   0.44056   0.56344   0.00000  Uiso   1.00
O63    O     0.35039   0.46251   0.43297   0.00000  Uiso   1.00
O64    O     0.31592   0.33528   0.32892   0.00000  Uiso   1.00
O65    O     0.33596   0.29676   0.45647   0.00000  Uiso   1.00
O66    O     0.39780   0.46386   0.19034   0.00000  Uiso   1.00
O67    O     0.30992   0.39283   0.26105   0.00000  Uiso   1.00
O68    O     0.47097   0.32818   0.21112   0.00000  Uiso   1.00
C69    C     0.33088   0.43215   0.19497   0.00000  Uiso   1.00
O70    O     0.47362   0.32922   0.34023   0.00000  Uiso   1.00
O71    O     0.42088   0.51837   0.37546   0.00000  Uiso   1.00
C72    C     0.29523   0.29486   0.39462   0.00000  Uiso   1.00
O73    O     0.51357   0.49515   0.43833   0.00000  Uiso   1.00
O74    O     0.48835   0.32420   0.55470   0.00000  Uiso   1.00
O75    O     0.53000   0.32797   0.41915   0.00000  Uiso   1.00
C76    C     0.33702   0.47126   0.51814   0.00000  Uiso   1.00
C77    C     0.53415   0.30450   0.49259   0.00000  Uiso   1.00
C78    C     0.48198   0.54179   0.40606   0.00000  Uiso   1.00
C79    C     0.49385   0.29861   0.26976   0.00000  Uiso   1.00
N80    N     0.27547   0.69912   0.10255   0.00000  Uiso   1.00
N81    N     0.34441   0.71552   0.11860   0.00000  Uiso   1.00
C82    C     0.38633   0.75521   0.05288   0.00000  Uiso   1.00
C83    C     0.34078   0.76527   0.99101   0.00000  Uiso   1.00
C84    C     0.26996   0.72819   1.02597   0.00000  Uiso   1.00
H85    H     0.35747   0.79462   0.92993   0.00000  Uiso   1.00
H86    H     0.23205   0.66857   0.14484   0.00000  Uiso   1.00
H87    H     0.36212   0.70264   0.17602   0.00000  Uiso   1.00
N88    N     0.61748   0.17390   0.27722   0.00000  Uiso   1.00
N89    N     0.60297   0.23972   0.27705   0.00000  Uiso   1.00
C90    C     0.53244   0.23607   0.26121   0.00000  Uiso   1.00
C91    C     0.50096   0.16340   0.25046   0.00000  Uiso   1.00
C92    C     0.55693   0.12542   0.26107   0.00000  Uiso   1.00
H93    H     0.44496   0.14134   0.23791   0.00000  Uiso   1.00
H94    H     0.66913   0.16238   0.28684   0.00000  Uiso   1.00
H95    H     0.64140   0.28574   0.28986   0.00000  Uiso   1.00
N96    N     0.56440   0.18399   0.49559   0.00000  Uiso   1.00
N97    N     0.62558   0.15574   0.47898   0.00000  Uiso   1.00
C98    C     0.68528   0.20978   0.46906   0.00000  Uiso   1.00
C99    C     0.66092   0.27466   0.48207   0.00000  Uiso   1.00
C100   C     0.58443   0.25611   0.50026   0.00000  Uiso   1.00
H101   H     0.69487   0.32808   0.48179   0.00000  Uiso   1.00
H102   H     0.50956   0.15493   0.50203   0.00000  Uiso   1.00
H103   H     0.62597   0.10132   0.48311   0.00000  Uiso   1.00
N104   N     0.61878   1.06598   0.89324   0.00000  Uiso   1.00
N105   N     0.65758   1.09863   0.82182   0.00000  Uiso   1.00
C106   C     0.71357   0.06309   0.79131   0.00000  Uiso   1.00
C107   C     0.70836   0.00390   0.84146   0.00000  Uiso   1.00
C108   C     0.64813   1.00788   0.90608   0.00000  Uiso   1.00
H109   H     0.74543  -0.03443   0.83560   0.00000  Uiso   1.00
H110   H     0.57373   1.08422   0.93237   0.00000  Uiso   1.00
H111   H     0.64842   1.14646   0.79757   0.00000  Uiso   1.00
N112   N     0.83243   0.91357   0.27048   0.00000  Uiso   1.00
N113   N     0.86191   0.93157   0.34356   0.00000  Uiso   1.00
C114   C     0.82691   0.98156   0.38851   0.00000  Uiso   1.00
C115   C     0.77237   0.99530   0.34223   0.00000  Uiso   1.00
C116   C     0.77743   0.95133   0.26786   0.00000  Uiso   1.00
H117   H     0.73408   1.03289   0.35935   0.00000  Uiso   1.00
H118   H     0.84822   0.87459   0.22429   0.00000  Uiso   1.00
H119   H     0.90828  -0.08743   0.35803   0.00000  Uiso   1.00
N120   N     0.27869   0.62443   0.62170   0.00000  Uiso   1.00
N121   N     0.30179   0.58884   0.54894   0.00000  Uiso   1.00
C122   C     0.29019   0.51845   0.56622   0.00000  Uiso   1.00
C123   C     0.25963   0.50941   0.65460   0.00000  Uiso   1.00
C124   C     0.25117   0.57764   0.68755   0.00000  Uiso   1.00
H125   H     0.25015   0.46034   0.69173   0.00000  Uiso   1.00
H126   H     0.27634   0.67882   0.62353   0.00000  Uiso   1.00
H127   H     0.33175   0.61406   0.49203   0.00000  Uiso   1.00
N128   N     0.27229   0.37928   0.06795   0.00000  Uiso   1.00
N129   N     0.21777   0.38893   0.02650   0.00000  Uiso   1.00
C130   C     0.20006   0.45288   0.05472   0.00000  Uiso   1.00
C131   C     0.23796   0.48109   0.12294   0.00000  Uiso   1.00
C132   C     0.28379   0.43292   0.12794   0.00000  Uiso   1.00
H133   H     0.23448   0.53066   0.16079   0.00000  Uiso   1.00
H134   H     0.28813   0.32921   0.07237   0.00000  Uiso   1.00
H135   H     0.17514   0.34909   0.01129   0.00000  Uiso   1.00
N136   N     0.12636   0.19086   0.33854   0.00000  Uiso   1.00
N137   N     0.20039   0.20885   0.32506   0.00000  Uiso   1.00
C138   C     0.22247   0.24599   0.39663   0.00000  Uiso   1.00
C139   C     0.15971   0.25252   0.45613   0.00000  Uiso   1.00
C140   C     0.09977   0.21808   0.41633   0.00000  Uiso   1.00
H141   H     0.15736   0.28272   0.51696   0.00000  Uiso   1.00
H142   H     0.09526   0.15851   0.29467   0.00000  Uiso   1.00
H143   H     0.23421   0.19669   0.26705   0.00000  Uiso   1.00
N144   N     0.12324   0.87452   0.64978   0.00000  Uiso   1.00
N145   N     0.10177   0.92822   0.61563   0.00000  Uiso   1.00
C146   C     0.02707   0.92065   0.63417   0.00000  Uiso   1.00
C147   C     0.99899   0.85888   0.68266   0.00000  Uiso   1.00
C148   C     0.06223   0.83150   0.69128   0.00000  Uiso   1.00
H149   H     0.94268   0.84179   0.71602   0.00000  Uiso   1.00
H150   H     0.17818   0.86968   0.65049   0.00000  Uiso   1.00
H151   H     0.13819  -0.02748   0.58608   0.00000  Uiso   1.00
N152   N     0.05981   0.34098   0.73287   0.00000  Uiso   1.00
N153   N     0.07457   0.41157   0.74733   0.00000  Uiso   1.00
C154   C     0.01036   0.43724   0.76392   0.00000  Uiso   1.00
C155   C     0.95165   0.38086   0.76032   0.00000  Uiso   1.00
C156   C     0.98534   0.32113   0.73995   0.00000  Uiso   1.00
H157   H     0.89301   0.38359   0.77043   0.00000  Uiso   1.00
H158   H     0.09996   0.30869   0.71307   0.00000  Uiso   1.00
H159   H     0.12778   0.44097   0.75133   0.00000  Uiso   1.00
N160   N     0.83986   0.62750   1.13929   0.00000  Uiso   1.00
N161   N     0.77213   0.64463   1.15487   0.00000  Uiso   1.00
C162   C     0.76431   0.68460   1.08847   0.00000  Uiso   1.00
C163   C     0.83028   0.69445   1.02954   0.00000  Uiso   1.00
C164   C     0.87666   0.65733   1.06384   0.00000  Uiso   1.00
H165   H     0.84331   0.72556   0.96985   0.00000  Uiso   1.00
H166   H     0.85976   0.59519   1.17973   0.00000  Uiso   1.00
H167   H     0.73275   0.63065   1.21066   0.00000  Uiso   1.00
N168   N     0.56720   0.65796   0.44094   0.00000  Uiso   1.00
N169   N     0.58199   0.72472   0.41305   0.00000  Uiso   1.00
C170   C     0.53544   0.73236   0.35625   0.00000  Uiso   1.00
C171   C     0.48891   0.66652   0.34813   0.00000  Uiso   1.00
C172   C     0.51151   0.62029   0.40161   0.00000  Uiso   1.00
H173   H     0.44932   0.65161   0.30223   0.00000  Uiso   1.00
H174   H     0.59576   0.63821   0.48451   0.00000  Uiso   1.00
H175   H     0.62624   0.76437   0.42707   0.00000  Uiso   1.00
loop_
_geom_bond_atom_site_label_1
_geom_bond_atom_site_label_2
_geom_bond_distance
_geom_bond_site_symmetry_2
_ccdc_geom_bond_type
Gd0    O3      2.304   .     S
Gd0    O4      2.101   .     S
Gd0    O6      2.276   .     S
Gd0    O7      2.283   .     S
Gd0    O8      2.336   .     S
Gd0    O11     2.276   .     S
Gd1    O2      2.158   .     S
Gd1    O5      2.342   .     S
Gd1    O10     2.186   .     S
Gd1    O13     2.194   .     S
Gd1    O14     2.263   .     S
Gd1    O15     2.263   1_556 S
O2     C16     1.254   .     A
O3     C16     1.294   .     A
O4     C12     1.259   .     A
O5     C12     1.299   .     A
O6     C9      1.236   .     A
O7     C9      1.239   .     A
O8     C19     1.276   .     A
C9     C148    1.475   .     S
O10    C19     1.267   .     A
O11    C18     1.278   .     A
C12    C124    1.485   .     S
O13    C18     1.272   .     A
O14    C17     1.232   .     A
O15    Gd1     2.263   1_554 S
O15    C17     1.236   1_554 A
C16    C154    1.468   .     S
C17    O15     1.236   1_556 A
C17    C130    1.453   1_556 S
C18    C164    1.480   1_455 S
C19    C84     1.487   .     S
Gd20   O23     2.265   .     S
Gd20   O24     2.230   .     S
Gd20   O26     2.233   .     S
Gd20   O27     2.252   .     S
Gd20   O28     2.233   .     S
Gd20   O31     2.206   .     S
Gd21   O22     2.225   .     S
Gd21   O25     2.270   .     S
Gd21   O30     2.257   .     S
Gd21   O33     2.217   .     S
Gd21   O34     2.257   .     S
Gd21   O35     2.241   1_565 S
O22    C36     1.269   .     A
O23    C36     1.288   .     A
O24    C32     1.278   .     A
O25    C32     1.285   .     A
O26    C29     1.253   .     A
O27    C29     1.277   .     A
O28    C39     1.269   .     A
C29    C162    1.478   1_554 S
O30    C39     1.280   .     A
O31    C38     1.266   .     A
C32    C170    1.471   .     S
O33    C38     1.265   .     A
O34    C37     1.266   1_565 A
O35    C37     1.275   .     A
O35    Gd21    2.241   1_545 S
C36    C82     1.475   .     S
C37    C92     1.484   .     S
C37    O34     1.266   1_545 A
C38    C108    1.463   1_554 S
C39    C116    1.474   .     S
Gd40   O43     2.267   .     S
Gd40   O44     2.178   .     S
Gd40   O51     2.210   .     S
Gd40   O46     2.277   1_545 S
Gd40   O47     2.219   1_655 S
Gd40   O48     2.289   1_545 S
Gd41   O42     2.163   .     S
Gd41   O45     2.255   .     S
Gd41   O50     2.218   .     S
Gd41   O53     2.230   .     S
Gd41   O54     2.227   .     S
Gd41   O55     2.258   .     S
O42    C56     1.258   .     A
O43    C56     1.279   .     A
O44    C52     1.257   .     A
O45    C52     1.283   .     A
O46    C49     1.267   .     A
O46    Gd40    2.277   1_565 S
O47    Gd40    2.219   1_455 S
O47    C49     1.263   1_445 A
O48    Gd40    2.289   1_565 S
O48    C59     1.287   1_565 A
C49    O47     1.263   1_665 A
C49    C146    1.453   1_655 S
O50    C59     1.265   .     A
O51    C58     1.269   .     A
C52    C140    1.459   1_655 S
O53    C58     1.273   .     A
O54    C57     1.252   .     A
O55    C57     1.262   .     A
C56    C156    1.444   .     S
C57    C98     1.449   .     S
C58    C106    1.463   .     S
C59    O48     1.287   1_545 A
C59    C114    1.469   1_545 S
Gd60   O63     2.384   .     S
Gd60   O64     2.184   .     S
Gd60   O66     2.265   .     S
Gd60   O67     2.256   .     S
Gd60   O68     2.350   .     S
Gd60   O71     2.198   .     S
Gd61   O62     2.127   .     S
Gd61   O65     2.270   .     S
Gd61   O70     2.211   .     S
Gd61   O73     2.303   .     S
Gd61   O74     2.272   .     S
Gd61   O75     2.202   .     S
O62    C76     1.262   .     A
O63    C76     1.304   .     A
O64    C72     1.267   .     A
O65    C72     1.300   .     A
O66    C69     1.261   .     A
O67    C69     1.260   .     A
O68    C79     1.254   .     A
C69    C132    1.455   .     S
O70    C79     1.240   .     A
O71    C78     1.285   .     A
C72    C138    1.478   .     S
O73    C78     1.302   .     A
O74    C77     1.261   .     A
O75    C77     1.256   .     A
C76    C122    1.450   .     S
C77    C100    1.441   .     S
C78    C172    1.482   .     S
C79    C90     1.479   .     S
N80    N81     1.313   .     A
N80    H86     1.049   .     S
N80    C84     1.354   1_554 A
N81    C82     1.342   .     A
N81    H87     1.046   .     S
C82    C83     1.410   1_554 A
C83    C84     1.401   .     A
C83    H85     1.090   .     S
C83    C82     1.410   1_556 A
C84    N80     1.354   1_556 A
N88    N89     1.320   .     A
N88    C92     1.354   .     A
N88    H94     1.051   .     S
N89    C90     1.352   .     A
N89    H95     1.046   .     S
C90    C91     1.399   .     A
C91    C92     1.398   .     A
C91    H93     1.084   .     S
N96    N97     1.321   .     A
N96    C100    1.344   .     A
N96    H102    1.050   .     S
N97    C98     1.350   .     A
N97    H103    1.035   .     S
C98    C99     1.376   .     A
C99    C100    1.377   .     A
C99    H101    1.084   .     S
N104   N105    1.327   .     A
N104   C108    1.348   .     A
N104   H110    1.048   .     S
N105   H111    1.048   .     S
N105   C106    1.346   1_565 A
C106   C107    1.373   .     A
C106   N105    1.346   1_545 A
C107   H109    1.077   .     S
C107   C108    1.380   1_545 A
C108   C107    1.380   1_565 A
C108   C38     1.463   1_556 S
N112   N113    1.329   .     A
N112   C116    1.352   .     A
N112   H118    1.045   .     S
N113   C114    1.343   .     A
N113   H119    1.047   1_565 S
C114   C115    1.392   .     A
C114   C59     1.469   1_565 S
C115   C116    1.380   .     A
C115   H117    1.087   .     S
H119   N113    1.047   1_545 S
N120   N121    1.328   .     A
N120   C124    1.354   .     A
N120   H126    1.035   .     S
N121   C122    1.341   .     A
N121   H127    1.046   .     S
C122   C123    1.395   .     A
C123   C124    1.386   .     A
C123   H125    1.087   .     S
N128   N129    1.319   .     A
N128   C132    1.344   .     A
N128   H134    1.049   .     S
N129   C130    1.342   .     A
N129   H135    1.029   .     S
C130   C131    1.384   .     A
C130   C17     1.453   1_554 S
C131   C132    1.366   .     A
C131   H133    1.083   .     S
N136   N137    1.331   .     A
N136   C140    1.335   .     A
N136   H142    1.053   .     S
N137   C138    1.352   .     A
N137   H143    1.046   .     S
C138   C139    1.379   .     A
C139   C140    1.389   .     A
C139   H141    1.070   .     S
C140   C52     1.459   1_455 S
N144   N145    1.318   .     A
N144   C148    1.350   .     A
N144   H150    1.037   .     S
N145   C146    1.345   .     A
N145   H151    1.045   1_565 S
C146   C147    1.390   1_455 A
C146   C49     1.453   1_455 S
C147   H149    1.082   .     S
C147   C146    1.390   1_655 A
C147   C148    1.390   1_655 A
C148   C147    1.390   1_455 A
H151   N145    1.045   1_545 S
N152   N153    1.324   .     A
N152   H158    1.045   .     S
N152   C156    1.344   1_455 A
N153   C154    1.346   .     A
N153   H159    1.044   .     S
C154   C155    1.376   1_455 A
C155   C156    1.386   .     A
C155   H157    1.080   .     S
C155   C154    1.376   1_655 A
C156   N152    1.344   1_655 A
N160   N161    1.332   .     A
N160   C164    1.344   .     A
N160   H166    1.046   .     S
N161   C162    1.345   .     A
N161   H167    1.044   .     S
C162   C163    1.387   .     A
C162   C29     1.478   1_556 S
C163   C164    1.383   .     A
C163   H165    1.088   .     S
C164   C18     1.480   1_655 S
N168   N169    1.320   .     A
N168   C172    1.345   .     A
N168   H174    1.040   .     S
N169   C170    1.351   .     A
N169   H175    1.042   .     S
C170   C171    1.385   .     A
C171   C172    1.393   .     A
C171   H173    1.087   .     S
