data_lcy+N173+E220
_audit_creation_date              2025-01-21
_audit_creation_method            'Materials Studio'
_symmetry_space_group_name_H-M    'P1'
_symmetry_Int_Tables_number       1
_symmetry_cell_setting            triclinic
loop_
_symmetry_equiv_pos_as_xyz
  x,y,z
_cell_length_a                    19.6933
_cell_length_b                    19.7942
_cell_length_c                    18.1345
_cell_angle_alpha                 92.9068
_cell_angle_beta                  87.0137
_cell_angle_gamma                 100.6658
loop_
_atom_site_label
_atom_site_type_symbol
_atom_site_fract_x
_atom_site_fract_y
_atom_site_fract_z
_atom_site_U_iso_or_equiv
_atom_site_adp_type
_atom_site_occupancy
Gd0    Gd    0.12678   0.66617   0.81537   0.00000  Uiso   1.00
Gd1    Gd    0.11597   0.59473   0.90194   0.00000  Uiso   1.00
O2     O     0.01504   0.54309   0.86695   0.00000  Uiso   1.00
O3     O     0.04897   0.58178   0.75939   0.00000  Uiso   1.00
O4     O     0.20685   0.62296   0.75594   0.00000  Uiso   1.00
O5     O     0.16672   0.53001   0.81521   0.00000  Uiso   1.00
O6     O     0.05310   0.73871   0.81382   0.00000  Uiso   1.00
O7     O     0.12414   0.73583   0.72258   0.00000  Uiso   1.00
O8     O     0.21414   0.73927   0.86851   0.00000  Uiso   1.00
C9     C     0.07367   0.76068   0.75057   0.00000  Uiso   1.00
O10    O     0.22176   0.65002   0.93293   0.00000  Uiso   1.00
O11    O     0.04362   0.71020   0.88176   0.00000  Uiso   1.00
C12    C     0.19947   0.55910   0.75917   0.00000  Uiso   1.00
O13    O     0.05777   0.65733   0.98155   0.00000  Uiso   1.00
O14    O     0.11209   0.51359   0.98306   0.00000  Uiso   1.00
O15    O     0.19984   0.59313  -0.01979   0.00000  Uiso   1.00
C16    C     0.01275   0.53501   0.79814   0.00000  Uiso   1.00
C17    C     0.17018   0.53748   1.00876   0.00000  Uiso   1.00
C18    C     0.02689   0.69827   0.94949   0.00000  Uiso   1.00
C19    C     0.24966   0.70865   0.90870   0.00000  Uiso   1.00
Gd20   Gd    0.65498   0.83210   0.10809   0.00000  Uiso   1.00
Gd21   Gd    0.58120   0.90385   0.14643   0.00000  Uiso   1.00
O22    O     0.50849   0.85210   0.06514   0.00000  Uiso   1.00
O23    O     0.57935   0.78574   0.01898   0.00000  Uiso   1.00
O24    O     0.60066   0.75703   0.18625   0.00000  Uiso   1.00
O25    O     0.53219   0.82664   0.23171   0.00000  Uiso   1.00
O26    O     0.75261   0.84724   0.03218   0.00000  Uiso   1.00
O27    O     0.72605   0.75532   0.08553   0.00000  Uiso   1.00
O28    O     0.72217   0.87935   0.20276   0.00000  Uiso   1.00
C29    C     0.77101   0.79116   0.04527   0.00000  Uiso   1.00
O30    O     0.65309   0.95314   0.23211   0.00000  Uiso   1.00
O31    O     0.70508   0.90698   0.02459   0.00000  Uiso   1.00
C32    C     0.55181   0.76817   0.23025   0.00000  Uiso   1.00
O33    O     0.62976   0.97411   0.05598   0.00000  Uiso   1.00
O34    O     0.50063   0.97089   0.16677   0.00000  Uiso   1.00
O35    O     0.59108   0.00033   0.22294   0.00000  Uiso   1.00
C36    C     0.52095   0.80610   0.01835   0.00000  Uiso   1.00
C37    C     0.53458   0.01667   0.20729   0.00000  Uiso   1.00
C38    C     0.67702   0.95808   0.01134   0.00000  Uiso   1.00
C39    C     0.70428   0.92592   0.24720   0.00000  Uiso   1.00
Gd40   Gd    0.91737   0.09795   0.65110   0.00000  Uiso   1.00
Gd41   Gd    0.85737   0.16643   0.61113   0.00000  Uiso   1.00
O42    O     0.87826   0.24379   0.69869   0.00000  Uiso   1.00
O43    O     0.96947   0.19875   0.71087   0.00000  Uiso   1.00
O44    O     0.99488   0.11393   0.56214   0.00000  Uiso   1.00
O45    O     0.96032   0.21044   0.55076   0.00000  Uiso   1.00
O46    O     0.90516   0.98493   0.62356   0.00000  Uiso   1.00
O47    O    -0.01620   0.03337   0.69572   0.00000  Uiso   1.00
O48    O     0.85906   1.01128   0.57526   0.00000  Uiso   1.00
C49    C     0.95612   0.97880   0.66168   0.00000  Uiso   1.00
O50    O     0.82898   0.09442   0.51707   0.00000  Uiso   1.00
O51    O     0.84296   0.07417   0.74457   0.00000  Uiso   1.00
C52    C     1.00621   0.17285   0.53776   0.00000  Uiso   1.00
O53    O     0.76609   0.11634   0.68654   0.00000  Uiso   1.00
O54    O     0.80330   0.23687   0.55880   0.00000  Uiso   1.00
O55    O     0.74368   0.16556   0.63160   0.00000  Uiso   1.00
C56    C     0.93743   0.24938   0.72222   0.00000  Uiso   1.00
C57    C     0.74422   0.21239   0.58576   0.00000  Uiso   1.00
C58    C     0.78160   0.08340   0.74098   0.00000  Uiso   1.00
C59    C     0.82955   0.03127   0.52061   0.00000  Uiso   1.00
Gd60   Gd    0.34119   0.36248   0.34851   0.00000  Uiso   1.00
Gd61   Gd    0.41790   0.37334   0.43420   0.00000  Uiso   1.00
O62    O     0.37107   0.44694   0.50115   0.00000  Uiso   1.00
O63    O     0.27896   0.41394   0.43688   0.00000  Uiso   1.00
O64    O     0.28847   0.26314   0.38507   0.00000  Uiso   1.00
O65    O     0.33917   0.29007   0.48921   0.00000  Uiso   1.00
O66    O     0.33921   0.44650   0.27143   0.00000  Uiso   1.00
O67    O     0.25942   0.35927   0.26683   0.00000  Uiso   1.00
O68    O     0.40034   0.30316   0.26753   0.00000  Uiso   1.00
C69    C     0.28422   0.41709   0.24129   0.00000  Uiso   1.00
O70    O     0.46261   0.29375   0.36204   0.00000  Uiso   1.00
O71    O     0.39872   0.46567   0.31322   0.00000  Uiso   1.00
C72    C     0.28898   0.25636   0.45315   0.00000  Uiso   1.00
O73    O     0.48691   0.46474   0.38244   0.00000  Uiso   1.00
O74    O     0.49067   0.36854   0.52423   0.00000  Uiso   1.00
O75    O     0.49915   0.30898   0.42510   0.00000  Uiso   1.00
C76    C     0.30734   0.44216   0.49539   0.00000  Uiso   1.00
C77    C     0.52158   0.32588   0.48898   0.00000  Uiso   1.00
C78    C     0.45717   0.49574   0.33683   0.00000  Uiso   1.00
C79    C     0.44383   0.27354   0.29688   0.00000  Uiso   1.00
C80    C     0.46329   0.77926   0.96750   0.00000  Uiso   1.00
C81    C     0.43746   0.70829   0.95445   0.00000  Uiso   1.00
C82    C     0.36774   0.68704   0.93507   0.00000  Uiso   1.00
C83    C     0.32407   0.73470   0.92432   0.00000  Uiso   1.00
C84    C     0.35276   0.80466   0.92816   0.00000  Uiso   1.00
C85    C     0.42099   0.82650  -0.05004   0.00000  Uiso   1.00
O86    O     0.45185   0.59419   0.97462   0.00000  Uiso   1.00
O87    O     0.54490   0.67025   0.93902   0.00000  Uiso   1.00
N88    N     0.48010   0.65741   0.96125   0.00000  Uiso   1.00
H89    H     0.32134   0.84256   0.91855   0.00000  Uiso   1.00
H90    H     0.43940   0.88132  -0.04176   0.00000  Uiso   1.00
H91    H     0.34737   0.63254   0.92777   0.00000  Uiso   1.00
C92    C     0.46933   0.21182   0.26270   0.00000  Uiso   1.00
C93    C     0.42646   0.15887   0.22203   0.00000  Uiso   1.00
C94    C     0.44883   0.09599   0.20431   0.00000  Uiso   1.00
C95    C     0.51216   0.08333   0.22793   0.00000  Uiso   1.00
C96    C     0.55510   0.13636   0.26630   0.00000  Uiso   1.00
C97    C     0.53403   0.19949   0.28316   0.00000  Uiso   1.00
O98    O     0.33715   0.14406   0.13712   0.00000  Uiso   1.00
O99    O     0.31344   0.17877   0.25352   0.00000  Uiso   1.00
N100   N     0.35851   0.16566   0.20234   0.00000  Uiso   1.00
H101   H     0.60493   0.12895   0.28366   0.00000  Uiso   1.00
H102   H     0.56813   0.23866   0.31396   0.00000  Uiso   1.00
H103   H     0.41523   0.05582   0.17381   0.00000  Uiso   1.00
C104   C     0.68342   0.23507   0.56108   0.00000  Uiso   1.00
C105   C     0.68179   0.25200   0.48632   0.00000  Uiso   1.00
C106   C     0.62953   0.28439   0.46554   0.00000  Uiso   1.00
C107   C     0.57792   0.29797   0.51649   0.00000  Uiso   1.00
C108   C     0.57838   0.27990   0.59007   0.00000  Uiso   1.00
C109   C     0.63112   0.24809   0.61237   0.00000  Uiso   1.00
O110   O     0.75051   0.17587   0.42841   0.00000  Uiso   1.00
O111   O     0.74962   0.27530   0.37504   0.00000  Uiso   1.00
N112   N     0.73174   0.23562   0.43059   0.00000  Uiso   1.00
H113   H     0.53775   0.28950   0.62957   0.00000  Uiso   1.00
H114   H     0.63221   0.23546   0.66968   0.00000  Uiso   1.00
H115   H     0.62888   0.29874   0.40886   0.00000  Uiso   1.00
C116   C     0.73242   0.05172   0.79999   0.00000  Uiso   1.00
C117   C     0.72319   0.97935   0.80695   0.00000  Uiso   1.00
C118   C     0.70423   0.95118   0.87635   0.00000  Uiso   1.00
C119   C     0.69431   0.99248   0.93965   0.00000  Uiso   1.00
C120   C     0.69763   0.06326   0.93153   0.00000  Uiso   1.00
C121   C     0.71755   0.09269   0.86258   0.00000  Uiso   1.00
O122   O     0.74599   0.87204   0.75571   0.00000  Uiso   1.00
O123   O     0.73345   0.95215   0.67764   0.00000  Uiso   1.00
N124   N     0.73643   0.93407   0.74510   0.00000  Uiso   1.00
H125   H     0.68835   0.09622   0.97909   0.00000  Uiso   1.00
H126   H     0.72660   0.14816   0.85953   0.00000  Uiso   1.00
H127   H     0.69710   0.89600   0.88129   0.00000  Uiso   1.00
C128   C     0.79274   0.98614   0.46127   0.00000  Uiso   1.00
C129   C     0.72508  -0.00469   0.44568   0.00000  Uiso   1.00
C130   C     0.69877  -0.02490   0.37592   0.00000  Uiso   1.00
C131   C     0.73709   0.94536   0.31995   0.00000  Uiso   1.00
C132   C     0.80219   0.93192   0.33698   0.00000  Uiso   1.00
C133   C     0.83005   0.95294   0.40665   0.00000  Uiso   1.00
O134   O     0.63521   0.05869   0.47745   0.00000  Uiso   1.00
O135   O     0.68826   0.02149   0.56936   0.00000  Uiso   1.00
N136   N     0.68327   0.02792   0.49900   0.00000  Uiso   1.00
H137   H     0.83259   0.90772   0.29565   0.00000  Uiso   1.00
H138   H     0.88253   0.94734   0.41607   0.00000  Uiso   1.00
H139   H     0.64708  -0.01733   0.36547   0.00000  Uiso   1.00
C140   C     0.26869   0.46335   0.56082   0.00000  Uiso   1.00
C141   C     0.27114   0.43214   0.62972   0.00000  Uiso   1.00
C142   C     0.24465   0.46091   0.69465   0.00000  Uiso   1.00
C143   C     0.22030   0.52225   0.69236   0.00000  Uiso   1.00
C144   C     0.21636   0.55166   0.62378   0.00000  Uiso   1.00
C145   C     0.23945   0.52190   0.55850   0.00000  Uiso   1.00
O146   O     0.36874   0.37796   0.62477   0.00000  Uiso   1.00
O147   O     0.26802   0.31996   0.66982   0.00000  Uiso   1.00
N148   N     0.30223   0.37269   0.63549   0.00000  Uiso   1.00
H149   H     0.19555   0.59838   0.62062   0.00000  Uiso   1.00
H150   H     0.23804   0.54672   0.50686   0.00000  Uiso   1.00
H151   H     0.24708   0.43783   0.74717   0.00000  Uiso   1.00
C152   C     0.20007   0.50457   0.06601   0.00000  Uiso   1.00
C153   C     0.18359   0.43261   0.07470   0.00000  Uiso   1.00
C154   C     0.20986   0.40476   0.13401   0.00000  Uiso   1.00
C155   C     0.25348   0.44712   0.18261   0.00000  Uiso   1.00
C156   C     0.26938   0.51808   0.17362   0.00000  Uiso   1.00
C157   C     0.24339   0.54659   0.11529   0.00000  Uiso   1.00
O158   O     0.15775   0.39259  -0.04808   0.00000  Uiso   1.00
O159   O     0.10121   0.33269   0.04514   0.00000  Uiso   1.00
N160   N     0.14339   0.38700   0.02246   0.00000  Uiso   1.00
H161   H     0.30081   0.55171   0.21245   0.00000  Uiso   1.00
H162   H     0.25586   0.60182   0.10963   0.00000  Uiso   1.00
H163   H     0.19853   0.34963   0.14035   0.00000  Uiso   1.00
C164   C     0.22223   0.22653   0.48810   0.00000  Uiso   1.00
C165   C     0.18570   0.16195   0.46267   0.00000  Uiso   1.00
C166   C     0.11315   0.14773   0.47254   0.00000  Uiso   1.00
C167   C     0.07637   0.19664   0.50620   0.00000  Uiso   1.00
C168   C     0.11297   0.26060   0.52928   0.00000  Uiso   1.00
C169   C     0.18477   0.27484   0.52116   0.00000  Uiso   1.00
O170   O     0.28674   0.11312   0.43596   0.00000  Uiso   1.00
O171   O     0.18742   0.05955   0.38826   0.00000  Uiso   1.00
N172   N     0.22132   0.11110   0.42664   0.00000  Uiso   1.00
H173   H     0.08646   0.29896   0.55565   0.00000  Uiso   1.00
H174   H     0.21066   0.32613   0.53581   0.00000  Uiso   1.00
H175   H     0.08510   0.09730   0.45614   0.00000  Uiso   1.00
C176   C    -0.01722   0.91574   0.66590   0.00000  Uiso   1.00
C177   C     0.05399   0.91568   0.65051   0.00000  Uiso   1.00
C178   C     0.08263   0.86174   0.67483   0.00000  Uiso   1.00
C179   C     0.04161   0.80996   0.71511   0.00000  Uiso   1.00
C180   C     0.97046   0.80838   0.72645   0.00000  Uiso   1.00
C181   C     0.94088   0.86073   0.70090   0.00000  Uiso   1.00
O182   O     0.16368  -0.01424   0.62480   0.00000  Uiso   1.00
O183   O     0.07388   0.00196   0.56122   0.00000  Uiso   1.00
N184   N     0.09788   0.97090   0.61288   0.00000  Uiso   1.00
H185   H     0.93834   0.76785   0.75713   0.00000  Uiso   1.00
H186   H     0.88660   0.86124   0.71383   0.00000  Uiso   1.00
H187   H     0.13751   0.86191   0.66565   0.00000  Uiso   1.00
C188   C    -0.01699   0.46455   0.76901   0.00000  Uiso   1.00
C189   C     0.01038   0.43525   0.70365   0.00000  Uiso   1.00
C190   C     0.00437   0.36310   0.69576   0.00000  Uiso   1.00
C191   C     0.96822   0.31904   0.74865   0.00000  Uiso   1.00
C192   C     0.93651   0.34818   0.80988   0.00000  Uiso   1.00
C193   C     0.94405   0.41952   0.82013   0.00000  Uiso   1.00
O194   O     0.08318   0.45311   0.59541   0.00000  Uiso   1.00
O195   O     0.01558   0.52993   0.62715   0.00000  Uiso   1.00
N196   N     0.04119   0.47680   0.64357   0.00000  Uiso   1.00
H197   H     0.90363   0.31546   0.84854   0.00000  Uiso   1.00
H198   H     0.92122   0.43973   0.87023   0.00000  Uiso   1.00
H199   H     0.02189   0.34070   0.64444   0.00000  Uiso   1.00
C200   C     0.83876   0.77057   1.02165   0.00000  Uiso   1.00
C201   C     0.88454   0.80504   0.96718   0.00000  Uiso   1.00
C202   C     0.94863   0.78479   0.95003   0.00000  Uiso   1.00
C203   C     0.96813   0.72897   0.98377   0.00000  Uiso   1.00
C204   C     0.92343   0.69606   0.03900   0.00000  Uiso   1.00
C205   C     0.85990   0.71678   0.05779   0.00000  Uiso   1.00
O206   O     0.91021   0.91041   0.90629   0.00000  Uiso   1.00
O207   O     0.80731   0.84245   0.88987   0.00000  Uiso   1.00
N208   N     0.86484   0.85657   0.92427   0.00000  Uiso   1.00
H209   H     0.93586   0.65211   0.06506   0.00000  Uiso   1.00
H210   H     0.82660   0.68990   0.10050   0.00000  Uiso   1.00
H211   H     0.98166   0.81051   0.90641   0.00000  Uiso   1.00
C212   C     0.51588   0.70770   0.27091   0.00000  Uiso   1.00
C213   C     0.46571   0.65986   0.23326   0.00000  Uiso   1.00
C214   C     0.45231   0.59070   0.25277   0.00000  Uiso   1.00
C215   C     0.48380   0.56748   0.31224   0.00000  Uiso   1.00
C216   C     0.53201   0.61562   0.35112   0.00000  Uiso   1.00
C217   C     0.54893   0.68453   0.32955   0.00000  Uiso   1.00
O218   O     0.40577   0.63453   0.12168   0.00000  Uiso   1.00
O219   O     0.41626   0.74142   0.17170   0.00000  Uiso   1.00
N220   N     0.43057   0.67989   0.17242   0.00000  Uiso   1.00
H221   H     0.55701   0.59998   0.39749   0.00000  Uiso   1.00
H222   H     0.59002   0.71931   0.35678   0.00000  Uiso   1.00
H223   H     0.41655   0.55442   0.22067   0.00000  Uiso   1.00
loop_
_geom_bond_atom_site_label_1
_geom_bond_atom_site_label_2
_geom_bond_distance
_geom_bond_site_symmetry_2
_ccdc_geom_bond_type
Gd0    O3      2.283   .     S
Gd0    O4      2.147   .     S
Gd0    O6      2.224   .     S
Gd0    O7      2.237   .     S
Gd0    O8      2.257   .     S
Gd0    O11     2.260   .     S
Gd1    O2      2.171   .     S
Gd1    O5      2.285   .     S
Gd1    O10     2.252   .     S
Gd1    O13     2.259   .     S
Gd1    O14     2.221   .     S
Gd1    O15     2.239   1_556 S
O2     C16     1.252   .     A
O3     C16     1.276   .     A
O4     C12     1.249   .     A
O5     C12     1.278   .     A
O6     C9      1.267   .     A
O7     C9      1.261   .     A
O8     C19     1.282   .     A
C9     C179    1.448   .     S
O10    C19     1.278   .     A
O11    C18     1.277   .     A
C12    C143    1.462   .     S
O13    C18     1.277   .     A
O14    C17     1.258   .     A
O15    Gd1     2.239   1_554 S
O15    C17     1.269   1_554 A
C16    C188    1.491   .     S
C17    O15     1.269   1_556 A
C17    C152    1.457   1_556 S
C18    C203    1.497   1_455 S
C19    C83     1.497   .     S
Gd20   O23     2.295   .     S
Gd20   O24     2.197   .     S
Gd20   O26     2.288   .     S
Gd20   O27     2.258   .     S
Gd20   O28     2.278   .     S
Gd20   O31     2.235   .     S
Gd21   O22     2.190   .     S
Gd21   O25     2.280   .     S
Gd21   O30     2.221   .     S
Gd21   O33     2.262   .     S
Gd21   O34     2.255   .     S
Gd21   O35     2.287   1_565 S
O22    C36     1.262   .     A
O23    C36     1.288   .     A
O24    C32     1.262   .     A
O25    C32     1.285   .     A
O26    C29     1.267   .     A
O27    C29     1.254   .     A
O28    C39     1.280   .     A
C29    C200    1.501   1_554 S
O30    C39     1.275   .     A
O31    C38     1.277   .     A
C32    C212    1.483   .     S
O33    C38     1.276   .     A
O34    C37     1.252   1_565 A
O35    C37     1.264   .     A
O35    Gd21    2.287   1_545 S
C36    C80     1.503   1_554 S
C37    C95     1.491   .     S
C37    O34     1.252   1_545 A
C38    C119    1.493   1_554 S
C39    C131    1.500   .     S
Gd40   O43     2.313   .     S
Gd40   O44     2.156   .     S
Gd40   O51     2.193   .     S
Gd40   O46     2.239   1_545 S
Gd40   O47     2.199   1_655 S
Gd40   O48     2.313   1_545 S
Gd41   O42     2.150   .     S
Gd41   O45     2.298   .     S
Gd41   O50     2.193   .     S
Gd41   O53     2.304   .     S
Gd41   O54     2.184   .     S
Gd41   O55     2.247   .     S
O42    C56     1.245   .     A
O43    C56     1.282   .     A
O44    C52     1.245   .     A
O45    C52     1.279   .     A
O46    C49     1.275   .     A
O46    Gd40    2.239   1_565 S
O47    Gd40    2.199   1_455 S
O47    C49     1.263   1_445 A
O48    Gd40    2.313   1_565 S
O48    C59     1.289   1_565 A
C49    O47     1.263   1_665 A
C49    C176    1.448   1_655 S
O50    C59     1.257   .     A
O51    C58     1.260   .     A
C52    C167    1.471   1_655 S
O53    C58     1.290   .     A
O54    C57     1.258   .     A
O55    C57     1.274   .     A
C56    C191    1.467   .     S
C57    C104    1.453   .     S
C58    C116    1.487   .     S
C59    O48     1.289   1_545 A
C59    C128    1.492   1_545 S
Gd60   O63     2.280   .     S
Gd60   O64     2.165   .     S
Gd60   O66     2.233   .     S
Gd60   O67     2.234   .     S
Gd60   O68     2.246   .     S
Gd60   O71     2.251   .     S
Gd61   O62     2.156   .     S
Gd61   O65     2.275   .     S
Gd61   O70     2.270   .     S
Gd61   O73     2.265   .     S
Gd61   O74     2.245   .     S
Gd61   O75     2.217   .     S
O62    C76     1.250   .     A
O63    C76     1.279   .     A
O64    C72     1.249   .     A
O65    C72     1.276   .     A
O66    C69     1.267   .     A
O67    C69     1.259   .     A
O68    C79     1.275   .     A
C69    C155    1.455   .     S
O70    C79     1.279   .     A
O71    C78     1.279   .     A
C72    C164    1.464   .     S
O73    C78     1.280   .     A
O74    C77     1.260   .     A
O75    C77     1.268   .     A
C76    C140    1.462   .     S
C77    C107    1.448   .     S
C78    C215    1.501   .     S
C79    C92     1.499   .     S
C80    C81     1.415   .     A
C80    C85     1.420   1_556 A
C80    C36     1.503   1_556 S
C81    C82     1.417   .     A
C81    N88     1.439   .     S
C82    C83     1.416   .     A
C82    H91     1.083   .     S
C83    C84     1.395   .     A
C84    H89     1.083   .     S
C84    C85     1.404   1_556 A
C85    H90     1.084   .     S
C85    C80     1.420   1_554 A
C85    C84     1.404   1_554 A
O86    N88     1.301   .     A
O87    N88     1.301   .     A
C92    C93     1.419   .     A
C92    C97     1.412   .     A
C93    C94     1.412   .     A
C93    N100    1.434   .     S
C94    C95     1.409   .     A
C94    H103    1.084   .     S
C95    C96     1.400   .     A
C96    C97     1.403   .     A
C96    H101    1.083   .     S
C97    H102    1.080   .     S
O98    N100    1.301   .     A
O99    N100    1.300   .     A
C104   C105    1.416   .     A
C104   C109    1.402   .     A
C105   C106    1.386   .     A
C105   N112    1.441   .     S
C106   C107    1.392   .     A
C106   H115    1.082   .     S
C107   C108    1.400   .     A
C108   C109    1.396   .     A
C108   H113    1.083   .     S
C109   H114    1.083   .     S
O110   N112    1.301   .     A
O111   N112    1.302   .     A
C116   C121    1.411   .     A
C116   C117    1.422   1_545 A
C117   C118    1.407   .     A
C117   N124    1.443   .     S
C117   C116    1.422   1_565 A
C118   C119    1.402   .     A
C118   H127    1.083   .     S
C119   C120    1.405   1_565 A
C119   C38     1.493   1_556 S
C120   C121    1.412   .     A
C120   H125    1.083   .     S
C120   C119    1.405   1_545 A
C121   H126    1.083   .     S
O122   N124    1.301   .     A
O123   N124    1.299   .     A
C128   C133    1.411   .     A
C128   C129    1.422   1_565 A
C128   C59     1.492   1_565 S
C129   C130    1.403   .     A
C129   N136    1.442   .     S
C129   C128    1.422   1_545 A
C130   H139    1.083   .     S
C130   C131    1.404   1_545 A
C131   C132    1.409   .     A
C131   C130    1.404   1_565 A
C132   C133    1.416   .     A
C132   H137    1.083   .     S
C133   H138    1.083   .     S
O134   N136    1.302   .     A
O135   N136    1.299   .     A
C140   C141    1.428   .     A
C140   C145    1.390   .     A
C141   C142    1.400   .     A
C141   N148    1.434   .     S
C142   C143    1.389   .     A
C142   H151    1.084   .     S
C143   C144    1.411   .     A
C144   C145    1.388   .     A
C144   H149    1.084   .     S
C145   H150    1.083   .     S
O146   N148    1.300   .     A
O147   N148    1.301   .     A
C152   C153    1.416   .     A
C152   C157    1.400   .     A
C152   C17     1.457   1_554 S
C153   C154    1.397   .     A
C153   N160    1.437   .     S
C154   C155    1.398   .     A
C154   H163    1.083   .     S
C155   C156    1.398   .     A
C156   C157    1.387   .     A
C156   H161    1.081   .     S
C157   H162    1.084   .     S
O158   N160    1.301   .     A
O159   N160    1.301   .     A
C164   C165    1.414   .     A
C164   C169    1.405   .     A
C165   C166    1.408   .     A
C165   N172    1.442   .     S
C166   C167    1.410   .     A
C166   H175    1.083   .     S
C167   C168    1.392   .     A
C167   C52     1.471   1_455 S
C168   C169    1.391   .     A
C168   H173    1.078   .     S
C169   H174    1.075   .     S
O170   N172    1.301   .     A
O171   N172    1.302   .     A
C176   C177    1.416   .     A
C176   C181    1.397   1_455 A
C176   C49     1.448   1_455 S
C177   C178    1.396   .     A
C177   N184    1.439   .     S
C178   C179    1.395   .     A
C178   H187    1.084   .     S
C179   C180    1.400   1_455 A
C180   C181    1.389   .     A
C180   H185    1.084   .     S
C180   C179    1.400   1_655 A
C181   H186    1.084   .     S
C181   C176    1.397   1_655 A
O182   N184    1.302   1_545 A
O183   N184    1.300   1_545 A
N184   O182    1.302   1_565 A
N184   O183    1.300   1_565 A
C188   C189    1.418   .     A
C188   C193    1.414   1_455 A
C189   C190    1.412   .     A
C189   N196    1.438   .     S
C190   H199    1.079   .     S
C190   C191    1.404   1_455 A
C191   C192    1.397   .     A
C191   C190    1.404   1_655 A
C192   C193    1.396   .     A
C192   H197    1.084   .     S
C193   H198    1.084   .     S
C193   C188    1.414   1_655 A
O194   N196    1.301   .     A
O195   N196    1.301   .     A
C200   C201    1.415   .     A
C200   C205    1.414   1_556 A
C200   C29     1.501   1_556 S
C201   C202    1.409   .     A
C201   N208    1.433   .     S
C202   C203    1.412   .     A
C202   H211    1.083   .     S
C203   C204    1.401   1_556 A
C203   C18     1.497   1_655 S
C204   C205    1.408   .     A
C204   H209    1.083   .     S
C204   C203    1.401   1_554 A
C205   H210    1.083   .     S
C205   C200    1.414   1_554 A
O206   N208    1.301   .     A
O207   N208    1.300   .     A
C212   C213    1.413   .     A
C212   C217    1.413   .     A
C213   C214    1.405   .     A
C213   N220    1.442   .     S
C214   C215    1.409   .     A
C214   H223    1.079   .     S
C215   C216    1.405   .     A
C216   C217    1.413   .     A
C216   H221    1.082   .     S
C217   H222    1.083   .     S
O218   N220    1.301   .     A
O219   N220    1.301   .     A
