data_lcy+N248+E70
_audit_creation_date              2025-01-21
_audit_creation_method            'Materials Studio'
_symmetry_space_group_name_H-M    'P1'
_symmetry_Int_Tables_number       1
_symmetry_cell_setting            triclinic
loop_
_symmetry_equiv_pos_as_xyz
  x,y,z
_cell_length_a                    18.5897
_cell_length_b                    16.8075
_cell_length_c                    15.2334
_cell_angle_alpha                 87.7759
_cell_angle_beta                  87.9841
_cell_angle_gamma                 89.3734
loop_
_atom_site_label
_atom_site_type_symbol
_atom_site_fract_x
_atom_site_fract_y
_atom_site_fract_z
_atom_site_U_iso_or_equiv
_atom_site_adp_type
_atom_site_occupancy
O0     O     0.17667   0.71607   0.98751   0.00000  Uiso   1.00
Yb1    Yb    0.19152   0.56549   0.84577   0.00000  Uiso   1.00
C2     C     0.27501   0.47973   0.76101   0.00000  Uiso   1.00
Yb3    Yb    0.08151   0.66453   0.93339   0.00000  Uiso   1.00
O4     O     0.26421   0.64386   0.91330   0.00000  Uiso   1.00
C5     C     0.11040   0.75780   0.80933   0.00000  Uiso   1.00
C6     C     0.24346   0.70268   0.96265   0.00000  Uiso   1.00
O7     O    -0.00331   0.66988   0.03149   0.00000  Uiso   1.00
C8     C     0.95227   0.64224  -0.02200   0.00000  Uiso   1.00
O9     O     0.23656   0.54726   0.97627   0.00000  Uiso   1.00
O10    O     0.12176   0.54895   0.96578   0.00000  Uiso   1.00
O11    O     0.10507   0.50878   0.78483   0.00000  Uiso   1.00
O12    O     0.97917   0.62378  -0.09758   0.00000  Uiso   1.00
O13    O     1.01826   0.59049   0.84253   0.00000  Uiso   1.00
C14    C     0.17997   0.54118   1.01819   0.00000  Uiso   1.00
C15    C     0.03914   0.53105   0.79383   0.00000  Uiso   1.00
O16    O     0.25007   0.45826   0.83747   0.00000  Uiso   1.00
O17    O     0.26526   0.55282   0.73752   0.00000  Uiso   1.00
O18    O     0.06016   0.77059   0.86167   0.00000  Uiso   1.00
O19    O     0.14528   0.68296   0.81992   0.00000  Uiso   1.00
O20    O     0.73692   0.97563   0.09807   0.00000  Uiso   1.00
Yb21   Yb    0.61316   0.84879   0.02622   0.00000  Uiso   1.00
C22    C     0.48310   0.81775   1.00405   0.00000  Uiso   1.00
Yb23   Yb    0.68180   0.88983   0.18273   0.00000  Uiso   1.00
O24    O     0.68699   0.93991   0.96995   0.00000  Uiso   1.00
C25    C     0.57258   0.98658   0.18744   0.00000  Uiso   1.00
C26    C     0.73074   0.98234   0.01354   0.00000  Uiso   1.00
O27    O     0.67977  -0.04287   0.29868   0.00000  Uiso   1.00
C28    C     0.73453   0.91836   0.32775   0.00000  Uiso   1.00
O29    O     0.66405   0.75631   0.95991   0.00000  Uiso   1.00
O30    O     0.70784   0.80163   0.08481   0.00000  Uiso   1.00
O31    O     0.56747   0.75672   0.12413   0.00000  Uiso   1.00
O32    O     0.76578   0.87194   0.27385   0.00000  Uiso   1.00
O33    O     0.62125   0.79890   0.24643   0.00000  Uiso   1.00
C34    C     0.71111   0.74846   0.01481   0.00000  Uiso   1.00
C35    C     0.58764   0.74620   0.20552   0.00000  Uiso   1.00
O36    O     0.52074   0.77615   0.05989   0.00000  Uiso   1.00
O37    O     0.51748   0.87149   0.95875   0.00000  Uiso   1.00
O38    O     0.61807  -0.01662   0.24426   0.00000  Uiso   1.00
O39    O     0.58497   0.93321   0.12097   0.00000  Uiso   1.00
O40    O     0.95853   0.23889   0.68819   0.00000  Uiso   1.00
Yb41   Yb    0.82545   0.17789   0.61886   0.00000  Uiso   1.00
C42    C     0.69728   0.21669   0.59816   0.00000  Uiso   1.00
Yb43   Yb    0.98319   0.10935   0.64266   0.00000  Uiso   1.00
O44    O     0.86831   0.29428   0.61106   0.00000  Uiso   1.00
C45    C     0.89049   0.09719   0.77641   0.00000  Uiso   1.00
C46    C     0.92131   0.30205   0.66174   0.00000  Uiso   1.00
O47    O     0.07156   0.07914   0.72055   0.00000  Uiso   1.00
C48    C     0.08008   1.01628   0.67373   0.00000  Uiso   1.00
O49    O     0.88184   0.25319   0.51445   0.00000  Uiso   1.00
O50    O     0.91161   0.13019   0.53788   0.00000  Uiso   1.00
O51    O     0.78981   0.06130   0.64480   0.00000  Uiso   1.00
O52    O     1.04070   1.00993   0.60619   0.00000  Uiso   1.00
O53    O     0.89132   1.05758   0.56487   0.00000  Uiso   1.00
C54    C     0.92388   0.20071   0.49156   0.00000  Uiso   1.00
C55    C     0.82995   0.02502   0.59077   0.00000  Uiso   1.00
O56    O     0.73853   0.19575   0.53390   0.00000  Uiso   1.00
O57    O     0.72795   0.22652   0.67096   0.00000  Uiso   1.00
O58    O     0.92292   1.04138   0.74625   0.00000  Uiso   1.00
O59    O     0.90298   0.16560   0.72650   0.00000  Uiso   1.00
O60    O     0.39895   0.22816   0.45503   0.00000  Uiso   1.00
Yb61   Yb    0.41785   0.36690   0.32642   0.00000  Uiso   1.00
C62    C     0.50329   0.47837   0.30197   0.00000  Uiso   1.00
Yb63   Yb    0.29977   0.23849   0.36182   0.00000  Uiso   1.00
O64    O     0.49616   0.28646   0.38651   0.00000  Uiso   1.00
C65    C     0.30155   0.34941   0.47880   0.00000  Uiso   1.00
C66    C     0.46934   0.24083   0.44953   0.00000  Uiso   1.00
O67    O     0.20967   0.19493   0.43949   0.00000  Uiso   1.00
C68    C     0.17293   0.19491   0.36869   0.00000  Uiso   1.00
O69    O     0.48805   0.26921   0.28750   0.00000  Uiso   1.00
O70    O     0.37468   0.27498   0.25345   0.00000  Uiso   1.00
O71    O     0.33053   0.44195   0.28839   0.00000  Uiso   1.00
O72    O     0.20891   0.20536   0.29540   0.00000  Uiso   1.00
O73    O     0.24506   0.34853   0.31507   0.00000  Uiso   1.00
C74    C     0.44075   0.23457   0.25004   0.00000  Uiso   1.00
C75    C     0.26575   0.41763   0.28490   0.00000  Uiso   1.00
O76    O     0.48602   0.43529   0.23850   0.00000  Uiso   1.00
O77    O     0.47711   0.45837   0.37827   0.00000  Uiso   1.00
O78    O     0.24795   0.33546   0.43988   0.00000  Uiso   1.00
O79    O     0.35863   0.31194   0.44105   0.00000  Uiso   1.00
N80    N     0.36831   0.74387   0.99138   0.00000  Uiso   1.00
H81    H     0.38151   0.93902   0.99831   0.00000  Uiso   1.00
C82    C     0.40457   0.81203   0.99835   0.00000  Uiso   1.00
C83    C     0.36147   0.87912   0.99673   0.00000  Uiso   1.00
C84    C     0.29705   0.76042   0.98710   0.00000  Uiso   1.00
S85    S     0.27277   0.85891   0.99154   0.00000  Uiso   1.00
N86    N     0.51077   0.11075   0.23251   0.00000  Uiso   1.00
H87    H     0.36545   0.15578   0.12234   0.00000  Uiso   1.00
C88    C     0.45395   0.15689   0.21143   0.00000  Uiso   1.00
C89    C     0.41254   0.12621   0.14824   0.00000  Uiso   1.00
C90    C     0.51267   0.04463   0.18505   0.00000  Uiso   1.00
S91    S     0.44621   0.03844   0.11094   0.00000  Uiso   1.00
N92    N     0.58794   0.22652   0.51231   0.00000  Uiso   1.00
H93    H     0.58578   0.19940   0.72768   0.00000  Uiso   1.00
C94    C     0.61893   0.22059   0.59038   0.00000  Uiso   1.00
C95    C     0.57057   0.20777   0.65992   0.00000  Uiso   1.00
C96    C     0.51609   0.21867   0.52198   0.00000  Uiso   1.00
S97    S     0.48367   0.20307   0.62788   0.00000  Uiso   1.00
N98    N     0.80254   0.03312   0.88286   0.00000  Uiso   1.00
H99    H     0.89306   1.19586   0.91996   0.00000  Uiso   1.00
C100   C     0.84742   0.09323   0.85918   0.00000  Uiso   1.00
C101   C     0.85656   1.14607   0.92492   0.00000  Uiso   1.00
C102   C     0.77682   0.04162   0.96629   0.00000  Uiso   1.00
S103   S     0.80857   1.12190   1.01907   0.00000  Uiso   1.00
N104   N     0.80078   0.96774   0.45151   0.00000  Uiso   1.00
H105   H     0.73209  -0.09316   0.64487   0.00000  Uiso   1.00
C106   C     0.79750  -0.03602   0.53980   0.00000  Uiso   1.00
C107   C     0.74555  -0.08676   0.57527   0.00000  Uiso   1.00
C108   C     0.75206  -0.08157   0.42049   0.00000  Uiso   1.00
S109   S     0.69866  -0.13183   0.49772   0.00000  Uiso   1.00
N110   N     0.29451   0.43197   0.61184   0.00000  Uiso   1.00
H111   H     0.32045   0.23718   0.61078   0.00000  Uiso   1.00
C112   C     0.30147   0.36175   0.57325   0.00000  Uiso   1.00
C113   C     0.31359   0.29812   0.63086   0.00000  Uiso   1.00
C114   C     0.30101   0.42036   0.69977   0.00000  Uiso   1.00
S115   S     0.31491   0.32371   0.73713   0.00000  Uiso   1.00
N116   N     0.23302   0.49789   0.15662   0.00000  Uiso   1.00
H117   H     0.05845   0.51893   0.13249   0.00000  Uiso   1.00
C118   C     0.17502   0.52055   0.11228   0.00000  Uiso   1.00
C119   C     0.11105   0.50744   0.15888   0.00000  Uiso   1.00
C120   C     0.21387   0.46675   0.23680   0.00000  Uiso   1.00
S121   S     0.12304   0.46289   0.26038   0.00000  Uiso   1.00
N122   N     0.05110   0.18919   0.44263   0.00000  Uiso   1.00
H123   H     0.08089   0.23583   0.23244   0.00000  Uiso   1.00
C124   C     0.09323   0.19661   0.36938   0.00000  Uiso   1.00
C125   C     0.05590   0.22276   0.29674   0.00000  Uiso   1.00
C126   C    -0.01762   0.20979   0.42526   0.00000  Uiso   1.00
S127   S    -0.03330   0.23979   0.31921   0.00000  Uiso   1.00
N128   N     0.09016   0.87862   0.72292   0.00000  Uiso   1.00
H129   H     1.23055   0.99721   0.70604   0.00000  Uiso   1.00
C130   C     0.12307   0.94761   0.70195   0.00000  Uiso   1.00
C131   C     0.19576   0.94608   0.71610   0.00000  Uiso   1.00
C132   C     0.13687   0.82298   0.75128   0.00000  Uiso   1.00
S133   S     0.22470   0.85394   0.75312   0.00000  Uiso   1.00
N134   N     0.99301   0.40971   0.72662   0.00000  Uiso   1.00
H135   H     0.89683   0.57356   0.75716   0.00000  Uiso   1.00
C136   C     0.98345   0.48554   0.75138   0.00000  Uiso   1.00
C137   C     0.91433   0.51412   0.74171   0.00000  Uiso   1.00
C138   C     0.93075   0.38201   0.69660   0.00000  Uiso   1.00
S139   S     0.85865   0.44716   0.69982   0.00000  Uiso   1.00
N140   N     0.83543   0.69772   0.02234   0.00000  Uiso   1.00
H141   H     0.69978   0.59501   0.95152   0.00000  Uiso   1.00
C142   C     0.76575   0.68562   0.00746   0.00000  Uiso   1.00
C143   C     0.75252   0.61376   0.97053   0.00000  Uiso   1.00
C144   C     0.87524   0.63473  -0.00334   0.00000  Uiso   1.00
S145   S     0.82858   0.55874   0.95318   0.00000  Uiso   1.00
N146   N     0.53431   0.61185   0.24019   0.00000  Uiso   1.00
H147   H     0.68225   0.67993   0.32472   0.00000  Uiso   1.00
C148   C     0.58345   0.66797   0.25203   0.00000  Uiso   1.00
C149   C     0.63687   0.64366   0.30896   0.00000  Uiso   1.00
C150   C     0.55074   0.54618   0.29042   0.00000  Uiso   1.00
S151   S     0.62654   0.54968   0.35116   0.00000  Uiso   1.00
loop_
_geom_bond_atom_site_label_1
_geom_bond_atom_site_label_2
_geom_bond_distance
_geom_bond_site_symmetry_2
_ccdc_geom_bond_type
O0     C6      1.305   .     A
O0     Yb3     2.180   .     S
Yb1    Yb3     2.940   .     S
Yb1    O4      2.205   .     S
Yb1    O9      2.193   .     S
Yb1    O10     2.214   .     S
Yb1    O11     2.136   .     S
Yb1    O16     2.101   .     S
Yb1    O17     2.123   .     S
Yb1    O19     2.172   .     S
C2     O16     1.279   .     A
C2     O17     1.279   .     A
C2     C114    1.459   .     S
Yb3    O10     2.121   .     S
Yb3    O18     2.096   .     S
Yb3    O19     2.076   .     S
Yb3    O7      2.138   1_556 S
Yb3    O12     2.104   1_456 S
Yb3    O13     2.264   1_455 S
O4     C6      1.312   .     A
C5     O18     1.229   .     D
C5     O19     1.415   .     S
C5     C132    1.459   .     S
C6     C84     1.466   .     S
O7     Yb3     2.138   1_554 S
O7     C8      1.283   1_455 A
C8     O12     1.287   .     A
C8     C144    1.456   .     S
C8     O7      1.283   1_655 A
O9     C14     1.215   .     D
O10    C14     1.369   .     S
O11    C15     1.282   .     A
O12    Yb3     2.104   1_654 S
O13    Yb3     2.264   1_655 S
O13    C15     1.315   1_655 A
C14    C118    1.461   1_556 S
C15    O13     1.315   1_455 A
C15    C136    1.476   1_455 S
O20    C26     1.297   .     A
O20    Yb23    2.142   .     S
Yb21   Yb23    2.855   .     S
Yb21   O30     2.133   .     S
Yb21   O31     2.259   .     S
Yb21   O36     2.154   .     S
Yb21   O39     2.112   .     S
Yb21   O24     2.197   1_554 S
Yb21   O29     2.087   1_554 S
Yb21   O37     2.109   1_554 S
C22    O37     1.278   .     A
C22    C82     1.470   .     S
C22    O36     1.299   1_556 A
Yb23   O30     2.182   .     S
Yb23   O32     2.136   .     S
Yb23   O33     2.095   .     S
Yb23   O39     2.167   .     S
Yb23   O27     2.133   1_565 S
Yb23   O38     2.179   1_565 S
O24    Yb21    2.197   1_556 S
O24    C26     1.303   1_556 A
C25    O39     1.390   .     S
C25    O38     1.230   1_565 D
C25    C90     1.473   1_565 S
C26    O24     1.303   1_554 A
C26    C102    1.471   1_564 S
O27    Yb23    2.133   1_545 S
O27    C28     1.285   1_545 A
C28    O32     1.275   .     A
C28    O27     1.285   1_565 A
C28    C108    1.461   1_565 S
O29    Yb21    2.087   1_556 S
O29    C34     1.234   1_556 D
O30    C34     1.417   .     S
O31    C35     1.313   .     A
O33    C35     1.283   .     A
C34    C142    1.462   .     S
C34    O29     1.234   1_554 D
C35    C148    1.471   .     S
O36    C22     1.299   1_554 A
O37    Yb21    2.109   1_556 S
O38    Yb23    2.179   1_545 S
O38    C25     1.230   1_545 D
O40    C46     1.318   .     A
O40    Yb43    2.346   .     S
Yb41   Yb43    3.166   .     S
Yb41   O44     2.118   .     S
Yb41   O49     2.233   .     S
Yb41   O50     2.154   .     S
Yb41   O51     2.094   .     S
Yb41   O56     2.117   .     S
Yb41   O57     2.121   .     S
Yb41   O59     2.223   .     S
C42    O56     1.280   .     A
C42    O57     1.282   .     A
C42    C94     1.466   .     S
Yb43   O50     2.130   .     S
Yb43   O59     2.163   .     S
Yb43   O47     2.106   1_655 S
Yb43   O52     2.058   1_545 S
Yb43   O53     2.309   1_545 S
Yb43   O58     2.194   1_545 S
O44    C46     1.284   .     A
C45    O59     1.371   .     S
C45    C100    1.469   .     S
C45    O58     1.207   1_545 D
C46    C138    1.479   .     S
O47    Yb43    2.106   1_455 S
O47    C48     1.303   1_545 A
C48    C130    1.456   .     S
C48    O47     1.303   1_565 A
C48    O52     1.292   1_455 A
O49    C54     1.225   .     D
O50    C54     1.373   .     S
O51    C55     1.262   .     A
O52    Yb43    2.058   1_565 S
O52    C48     1.292   1_655 A
O53    Yb43    2.309   1_565 S
O53    C55     1.312   1_565 A
C54    C126    1.463   1_655 S
C55    C106    1.459   .     S
C55    O53     1.312   1_545 A
O58    Yb43    2.194   1_565 S
O58    C45     1.207   1_565 D
O60    C66     1.327   .     A
O60    Yb63    2.367   .     S
Yb61   Yb63    3.114   .     S
Yb61   O64     2.177   .     S
Yb61   O69     2.174   .     S
Yb61   O70     2.119   .     S
Yb61   O71     2.127   .     S
Yb61   O76     2.125   .     S
Yb61   O77     2.096   .     S
Yb61   O79     2.208   .     S
C62    O76     1.282   .     A
C62    O77     1.278   .     A
C62    C150    1.450   .     S
Yb63   O67     2.136   .     S
Yb63   O70     2.195   .     S
Yb63   O72     2.091   .     S
Yb63   O73     2.207   .     S
Yb63   O78     2.244   .     S
Yb63   O79     2.101   .     S
O64    C66     1.294   .     A
C65    O78     1.207   .     D
C65    O79     1.350   .     S
C65    C112    1.461   .     S
C66    C96     1.463   .     S
O67    C68     1.297   .     A
C68    O72     1.288   .     A
C68    C124    1.481   .     S
O69    C74     1.229   .     D
O70    C74     1.397   .     S
O71    C75     1.279   .     A
O73    C75     1.290   .     A
C74    C88     1.467   .     S
C75    C120    1.461   .     S
N80    C82     1.345   .     A
N80    C84     1.354   .     A
H81    C83     1.079   .     S
C82    C83     1.376   .     A
C83    S85     1.692   .     A
C84    S85     1.714   .     A
N86    C88     1.344   .     A
N86    C90     1.349   .     A
H87    C89     1.081   .     S
C88    C89     1.373   .     A
C89    S91     1.706   .     A
C90    S91     1.709   .     A
C90    C25     1.473   1_545 S
N92    C94     1.339   .     A
N92    C96     1.346   .     A
H93    C95     1.083   .     S
C94    C95     1.377   .     A
C95    S97     1.707   .     A
C96    S97     1.714   .     A
N98    C100    1.347   .     A
N98    C102    1.354   .     A
H99    C101    1.082   .     S
C100   C101    1.380   1_545 A
C101   S103    1.700   .     A
C101   C100    1.380   1_565 A
C102   S103    1.718   1_545 A
C102   C26     1.471   1_546 S
S103   C102    1.718   1_565 A
N104   C106    1.343   1_565 A
N104   C108    1.344   1_565 A
H105   C107    1.082   .     S
C106   C107    1.377   .     A
C106   N104    1.343   1_545 A
C107   S109    1.699   .     A
C108   S109    1.715   .     A
C108   N104    1.344   1_545 A
C108   C28     1.461   1_545 S
N110   C112    1.342   .     A
N110   C114    1.355   .     A
H111   C113    1.085   .     S
C112   C113    1.379   .     A
C113   S115    1.692   .     A
C114   S115    1.720   .     A
N116   C118    1.336   .     A
N116   C120    1.348   .     A
H117   C119    1.083   .     S
C118   C119    1.379   .     A
C118   C14     1.461   1_554 S
C119   S121    1.712   .     A
C120   S121    1.715   .     A
N122   C124    1.343   .     A
N122   C126    1.352   .     A
H123   C125    1.085   .     S
C124   C125    1.382   .     A
C125   S127    1.705   .     A
C126   S127    1.708   .     A
C126   C54     1.463   1_455 S
N128   C130    1.339   .     A
N128   C132    1.339   .     A
H129   C131    1.084   1_655 S
C130   C131    1.376   .     A
C131   S133    1.715   .     A
C131   H129    1.084   1_455 S
C132   S133    1.721   .     A
N134   C136    1.351   .     A
N134   C138    1.353   .     A
H135   C137    1.079   .     S
C136   C137    1.378   .     A
C136   C15     1.476   1_655 S
C137   S139    1.695   .     A
C138   S139    1.722   .     A
N140   C142    1.342   .     A
N140   C144    1.348   .     A
H141   C143    1.085   .     S
C142   C143    1.380   1_554 A
C143   S145    1.700   .     A
C143   C142    1.380   1_556 A
C144   S145    1.718   1_554 A
S145   C144    1.718   1_556 A
N146   C148    1.342   .     A
N146   C150    1.357   .     A
H147   C149    1.085   .     S
C148   C149    1.389   .     A
C149   S151    1.692   .     A
C150   S151    1.716   .     A
