data_lcy+N106+E15
_audit_creation_date              2025-01-21
_audit_creation_method            'Materials Studio'
_symmetry_space_group_name_H-M    'P1'
_symmetry_Int_Tables_number       1
_symmetry_cell_setting            triclinic
loop_
_symmetry_equiv_pos_as_xyz
  x,y,z
_cell_length_a                    16.8121
_cell_length_b                    16.7655
_cell_length_c                    17.0113
_cell_angle_alpha                 100.0300
_cell_angle_beta                  95.9590
_cell_angle_gamma                 90.1690
loop_
_atom_site_label
_atom_site_type_symbol
_atom_site_fract_x
_atom_site_fract_y
_atom_site_fract_z
_atom_site_U_iso_or_equiv
_atom_site_adp_type
_atom_site_occupancy
Y0     Y     0.07195   0.60205   0.80658   0.00000  Uiso   1.00
Y1     Y     0.12352   0.53894   0.96716   0.00000  Uiso   1.00
O2     O     0.19257   0.55503   0.78148   0.00000  Uiso   1.00
O3     O     0.10538   0.47648   0.83642   0.00000  Uiso   1.00
C4     C     0.17187   0.51111   1.11650   0.00000  Uiso   1.00
O5     O     0.04358   0.42830   0.92223   0.00000  Uiso   1.00
O6     O     0.04592   0.60730   0.67375   0.00000  Uiso   1.00
O7     O    -0.00096   0.69743   0.75749   0.00000  Uiso   1.00
O8     O     0.24000   0.53439   0.90580   0.00000  Uiso   1.00
O9     O     0.10141   0.66327   0.93706   0.00000  Uiso   1.00
O10    O     0.16808   0.69862   0.84826   0.00000  Uiso   1.00
O11    O    -0.04264   0.56493   0.84969   0.00000  Uiso   1.00
C12    C     0.24946   0.53850   0.83212   0.00000  Uiso   1.00
O13    O     0.00004   0.59052   0.98050   0.00000  Uiso   1.00
C14    C     0.05409   0.41801   0.85210   0.00000  Uiso   1.00
O15    O     0.12105   0.46833   1.06762   0.00000  Uiso   1.00
O16    O     0.20082   0.56765   0.08744   0.00000  Uiso   1.00
C17    C     0.00716   0.67226   0.68485   0.00000  Uiso   1.00
C18    C    -0.05689   0.57775   0.92306   0.00000  Uiso   1.00
C19    C     0.16547   0.70656   0.91969   0.00000  Uiso   1.00
Y20    Y     0.59384   0.80803   0.06290   0.00000  Uiso   1.00
Y21    Y     0.52660   0.98627   0.11391   0.00000  Uiso   1.00
O22    O     0.55102   0.80048   0.18355   0.00000  Uiso   1.00
O23    O     0.47291   0.85954   0.09636   0.00000  Uiso   1.00
C24    C     0.53590   0.14732   0.16986   0.00000  Uiso   1.00
O25    O     0.40922   0.94648   0.03689   0.00000  Uiso   1.00
O26    O     0.71061   0.75710   0.03128   0.00000  Uiso   1.00
O27    O     0.61297   0.67435   1.01387   0.00000  Uiso   1.00
O28    O     0.53104   0.93373   0.22979   0.00000  Uiso   1.00
O29    O     0.64772   0.93436   0.09709   0.00000  Uiso   1.00
O30    O     0.68716   0.84464   0.16715   0.00000  Uiso   1.00
O31    O     0.55807   0.85061  -0.05478   0.00000  Uiso   1.00
C32    C     0.53959   0.85976   0.24071   0.00000  Uiso   1.00
O33    O     0.56733   0.98406  -0.00842   0.00000  Uiso   1.00
C34    C     0.40773   0.87633   0.04648   0.00000  Uiso   1.00
O35    O     0.47294   1.11202   0.13211   0.00000  Uiso   1.00
O36    O     0.59080   0.09878   0.18233   0.00000  Uiso   1.00
C37    C     0.68745   0.68482   0.00968   0.00000  Uiso   1.00
C38    C     0.56390   0.92356  -0.06608   0.00000  Uiso   1.00
C39    C     0.69027   0.91606   0.16556   0.00000  Uiso   1.00
Y40    Y     0.80188   0.05637   0.62907   0.00000  Uiso   1.00
Y41    Y     0.95081   0.09353   0.54130   0.00000  Uiso   1.00
O42    O     0.76821   0.17399   0.59127   0.00000  Uiso   1.00
O43    O     0.81757   0.08134   0.50220   0.00000  Uiso   1.00
C44    C     1.09693   0.11707   0.50034   0.00000  Uiso   1.00
O45    O     0.89823   0.01485   0.42730   0.00000  Uiso   1.00
O46    O     0.75410   0.02512   0.73805   0.00000  Uiso   1.00
O47    O     0.67281   1.01586   0.63416   0.00000  Uiso   1.00
O48    O     0.88787   0.21669   0.56197   0.00000  Uiso   1.00
O49    O     0.93372   0.08253   0.66790   0.00000  Uiso   1.00
O50    O     0.84956   0.16043   0.72686   0.00000  Uiso   1.00
O51    O     0.85173  -0.06663   0.59038   0.00000  Uiso   1.00
C52    C     0.81465   0.22970   0.57734   0.00000  Uiso   1.00
O53    O     0.97631  -0.02782   0.57783   0.00000  Uiso   1.00
C54    C     0.82862   0.03009   0.43171   0.00000  Uiso   1.00
O55    O     1.04753   0.06564   0.46041   0.00000  Uiso   1.00
O56    O     1.06805   0.16280   0.55653   0.00000  Uiso   1.00
C57    C     0.68375   0.00784   0.70712   0.00000  Uiso   1.00
C58    C     0.92470  -0.08267   0.58160   0.00000  Uiso   1.00
C59    C     0.91979   0.15371   0.71862   0.00000  Uiso   1.00
Y60    Y     0.48279   0.54983   0.48257   0.00000  Uiso   1.00
Y61    Y     0.41914   0.37327   0.47746   0.00000  Uiso   1.00
O62    O     0.59782   0.49430   0.52258   0.00000  Uiso   1.00
O63    O     0.51208   0.42370   0.41211   0.00000  Uiso   1.00
C64    C     0.35870   0.22687   0.48415   0.00000  Uiso   1.00
O65    O     0.41341   0.35295   0.34403   0.00000  Uiso   1.00
O66    O     0.46261   0.68387   0.48904   0.00000  Uiso   1.00
O67    O     0.55865   0.63324   0.42989   0.00000  Uiso   1.00
O68    O     0.54375   0.37862   0.54636   0.00000  Uiso   1.00
O69    O     0.38746   0.49509   0.54272   0.00000  Uiso   1.00
O70    O     0.47830   0.56835   0.61938   0.00000  Uiso   1.00
O71    O     0.37867   0.53136   0.38628   0.00000  Uiso   1.00
C72    C     0.60411   0.42672   0.54771   0.00000  Uiso   1.00
O73    O     0.31065   0.43748   0.43196   0.00000  Uiso   1.00
C74    C     0.47591   0.38522   0.33797   0.00000  Uiso   1.00
O75    O     0.37772   0.24643   0.42092   0.00000  Uiso   1.00
O76    O     0.37936   0.27901   0.54518   0.00000  Uiso   1.00
C77    C     0.51834   0.69536   0.44827   0.00000  Uiso   1.00
C78    C     0.31586   0.48767   0.38382   0.00000  Uiso   1.00
C79    C     0.42177   0.52360   0.61961   0.00000  Uiso   1.00
N80    N     0.22487   0.77025   1.05743   0.00000  Uiso   1.00
N81    N     0.29016   0.81273   0.08988   0.00000  Uiso   1.00
C82    C     0.33385   0.82614   1.03096   0.00000  Uiso   1.00
C83    C     0.29429   0.79109   0.95739   0.00000  Uiso   1.00
C84    C     0.22585   0.75541   0.97702   0.00000  Uiso   1.00
H85    H     0.31287   0.79054   0.89826   0.00000  Uiso   1.00
H86    H     0.17992   0.75340   0.08997   0.00000  Uiso   1.00
H87    H     0.30370   0.83367   0.15145   0.00000  Uiso   1.00
N88    N     0.61482   0.26973   0.23779   0.00000  Uiso   1.00
N89    N     0.59871   0.34050   0.28032   0.00000  Uiso   1.00
C90    C     0.51908   0.35212   0.26958   0.00000  Uiso   1.00
C91    C     0.48446   0.28822   0.21235   0.00000  Uiso   1.00
C92    C     0.54606   0.23517   0.19829   0.00000  Uiso   1.00
H93    H     0.42113   0.27226   0.20000   0.00000  Uiso   1.00
H94    H     0.66985   0.24133   0.24469   0.00000  Uiso   1.00
H95    H     0.63828   0.37059   0.32776   0.00000  Uiso   1.00
N96    N     0.75306   0.42902   0.55172   0.00000  Uiso   1.00
N97    N     0.81004   0.37501   0.55644   0.00000  Uiso   1.00
C98    C     0.77791   0.30902   0.57724   0.00000  Uiso   1.00
C99    C     0.69836   0.32238   0.58758   0.00000  Uiso   1.00
C100   C     0.68433   0.39808   0.56969   0.00000  Uiso   1.00
H101   H     0.65409   0.27911   0.59737   0.00000  Uiso   1.00
H102   H     0.75961   0.48312   0.53016   0.00000  Uiso   1.00
H103   H     0.86782   0.38170   0.54090   0.00000  Uiso   1.00
N104   N     0.53142   0.90293   0.78402   0.00000  Uiso   1.00
N105   N     0.56149   0.92808   0.72330   0.00000  Uiso   1.00
C106   C     0.62373   0.97944   0.75328   0.00000  Uiso   1.00
C107   C     0.63238   0.98858   0.83609   0.00000  Uiso   1.00
C108   C     0.57353   0.93892   0.85317   0.00000  Uiso   1.00
H109   H     0.67858   1.02243   0.87803   0.00000  Uiso   1.00
H110   H     0.48409   0.86108   0.77765   0.00000  Uiso   1.00
H111   H     0.54188   0.90734   0.66278   0.00000  Uiso   1.00
N112   N     0.74552   1.05099   0.23688   0.00000  Uiso   1.00
N113   N     0.77627   1.08224   0.31036   0.00000  Uiso   1.00
C114   C     0.77515   1.02484   0.35762   0.00000  Uiso   1.00
C115   C     0.74458   0.95350   0.31126   0.00000  Uiso   1.00
C116   C     0.72596   0.97290   0.23542   0.00000  Uiso   1.00
H117   H     0.74117   0.89463   0.32870   0.00000  Uiso   1.00
H118   H     0.74271   1.08146   0.18774   0.00000  Uiso   1.00
H119   H     0.80368   1.14000   0.32649   0.00000  Uiso   1.00
N120   N     0.32051   0.43207   0.75695   0.00000  Uiso   1.00
N121   N     0.35908   0.42931   0.69309   0.00000  Uiso   1.00
C122   C     0.39119   0.50293   0.69233   0.00000  Uiso   1.00
C123   C     0.36959   0.55637   0.75883   0.00000  Uiso   1.00
C124   C     0.32260   0.50910   0.79759   0.00000  Uiso   1.00
H125   H     0.37410   0.62208   0.76867   0.00000  Uiso   1.00
H126   H     0.28019   0.38615   0.76323   0.00000  Uiso   1.00
H127   H     0.35238   0.38168   0.64474   0.00000  Uiso   1.00
N128   N     0.19035   0.43483   0.30127   0.00000  Uiso   1.00
N129   N     0.15433   0.43907   0.22935   0.00000  Uiso   1.00
C130   C     0.19232   0.49551   0.19858   0.00000  Uiso   1.00
C131   C     0.25533   0.52907   0.25368   0.00000  Uiso   1.00
C132   C     0.25217   0.48837   0.31799   0.00000  Uiso   1.00
H133   H     0.30087   0.57158   0.24527   0.00000  Uiso   1.00
H134   H     0.17622   0.39185   0.33541   0.00000  Uiso   1.00
H135   H     0.10667   0.40127   0.20068   0.00000  Uiso   1.00
N136   N     0.21079   0.07524   0.42151   0.00000  Uiso   1.00
N137   N     0.28478   0.10124   0.42031   0.00000  Uiso   1.00
C138   C     0.30268   0.16109   0.48391   0.00000  Uiso   1.00
C139   C     0.23786   0.17328   0.52788   0.00000  Uiso   1.00
C140   C     0.18027   0.11988   0.48480   0.00000  Uiso   1.00
H141   H     0.22934   0.22289   0.57656   0.00000  Uiso   1.00
H142   H     0.18005   0.03283   0.37630   0.00000  Uiso   1.00
H143   H     0.31884   0.08427   0.37227   0.00000  Uiso   1.00
N144   N     0.02533   0.72799   0.56155   0.00000  Uiso   1.00
N145   N     0.00683   0.79680   0.53647   0.00000  Uiso   1.00
C146   C     0.95065   0.83356   0.58043   0.00000  Uiso   1.00
C147   C     0.93242   0.78625   0.63517   0.00000  Uiso   1.00
C148   C     0.98234   0.72077   0.62281   0.00000  Uiso   1.00
H149   H     0.89675   0.80279   0.68481   0.00000  Uiso   1.00
H150   H     0.07243   0.69136   0.54286   0.00000  Uiso   1.00
H151   H     0.03577   0.82016   0.49368   0.00000  Uiso   1.00
N152   N     0.05530   0.21962   0.73397   0.00000  Uiso   1.00
N153   N     0.08804   0.29204   0.76262   0.00000  Uiso   1.00
C154   C     0.03340   0.33994   0.79883   0.00000  Uiso   1.00
C155   C     0.96290   0.29545   0.79356   0.00000  Uiso   1.00
C156   C     0.97896   0.21962   0.75096   0.00000  Uiso   1.00
H157   H     0.90773   0.31553   0.81733   0.00000  Uiso   1.00
H158   H     0.08543   0.17072   0.70470   0.00000  Uiso   1.00
H159   H     0.14802   0.30694   0.76050   0.00000  Uiso   1.00
N160   N     0.79831   0.53695   0.89199   0.00000  Uiso   1.00
N161   N     0.72928   0.56311   0.91675   0.00000  Uiso   1.00
C162   C     0.74446   0.62276   0.98096   0.00000  Uiso   1.00
C163   C     0.82683   0.63350   0.99863   0.00000  Uiso   1.00
C164   C     0.85885   0.57868   0.94054   0.00000  Uiso   1.00
H165   H     0.85832   0.68165   0.04150   0.00000  Uiso   1.00
H166   H     0.80344   0.49455   0.83996   0.00000  Uiso   1.00
H167   H     0.67345   0.54534   0.88572   0.00000  Uiso   1.00
N168   N     0.48846   0.83840   0.43480   0.00000  Uiso   1.00
N169   N     0.49297   0.88214   0.37768   0.00000  Uiso   1.00
C170   C     0.53513   0.84065   0.32095   0.00000  Uiso   1.00
C171   C     0.56022   0.76900   0.34371   0.00000  Uiso   1.00
C172   C     0.52868   0.76923   0.41540   0.00000  Uiso   1.00
H173   H     0.58765   0.71881   0.30778   0.00000  Uiso   1.00
H174   H     0.45299   0.85259   0.48222   0.00000  Uiso   1.00
H175   H     0.46273   0.93614   0.37498   0.00000  Uiso   1.00
loop_
_geom_bond_atom_site_label_1
_geom_bond_atom_site_label_2
_geom_bond_distance
_geom_bond_site_symmetry_2
_ccdc_geom_bond_type
Y0     O2      2.234   .     S
Y0     O3      2.308   .     S
Y0     O6      2.274   .     S
Y0     O7      2.241   .     S
Y0     O9      2.281   .     S
Y0     O10     2.255   .     S
Y0     O11     2.254   .     S
Y1     O3      2.276   .     S
Y1     O5      2.261   .     S
Y1     O8      2.308   .     S
Y1     O9      2.254   .     S
Y1     O13     2.269   .     S
Y1     O15     2.246   .     S
Y1     O16     2.282   1_556 S
O2     C12     1.283   .     A
O3     C14     1.382   .     S
C4     O15     1.256   .     A
C4     O16     1.261   1_556 A
C4     C130    1.471   1_556 S
O5     C14     1.207   .     D
O6     C17     1.267   .     A
O7     C17     1.256   .     A
O8     C12     1.293   .     A
O9     C19     1.382   .     S
O10    C19     1.205   .     D
O11    C18     1.277   .     A
C12    C124    1.467   .     S
O13    C18     1.284   .     A
C14    C154    1.474   .     S
O16    Y1      2.282   1_554 S
O16    C4      1.261   1_554 A
C17    C148    1.469   1_455 S
C18    C164    1.477   1_455 S
C19    C84     1.471   .     S
Y20    O22     2.268   .     S
Y20    O23     2.298   .     S
Y20    O26     2.223   .     S
Y20    O29     2.257   .     S
Y20    O30     2.241   .     S
Y20    O31     2.265   .     S
Y20    O27     2.287   1_554 S
Y21    O23     2.265   .     S
Y21    O25     2.282   .     S
Y21    O28     2.290   .     S
Y21    O29     2.243   .     S
Y21    O33     2.252   .     S
Y21    O35     2.280   .     S
Y21    O36     2.245   1_565 S
O22    C32     1.294   .     A
O23    C34     1.376   .     S
C24    O36     1.258   .     A
C24    C92     1.472   .     S
C24    O35     1.267   1_545 A
O25    C34     1.216   .     D
O26    C37     1.252   .     A
O27    Y20     2.287   1_556 S
O27    C37     1.275   1_556 A
O28    C32     1.292   .     A
O29    C39     1.384   .     S
O30    C39     1.204   .     D
O31    C38     1.276   .     A
C32    C170    1.465   .     S
O33    C38     1.279   .     A
C34    C82     1.473   1_554 S
O35    C24     1.267   1_565 A
O36    Y21     2.245   1_545 S
C37    O27     1.275   1_554 A
C37    C162    1.472   1_554 S
C38    C108    1.466   1_554 S
C39    C116    1.461   .     S
Y40    O42     2.235   .     S
Y40    O43     2.310   .     S
Y40    O46     2.237   .     S
Y40    O49     2.265   .     S
Y40    O50     2.271   .     S
Y40    O51     2.245   .     S
Y40    O47     2.286   1_545 S
Y41    O43     2.268   .     S
Y41    O45     2.242   .     S
Y41    O48     2.312   .     S
Y41    O49     2.241   .     S
Y41    O53     2.258   .     S
Y41    O55     2.237   .     S
Y41    O56     2.253   .     S
O42    C52     1.284   .     A
O43    C54     1.378   .     S
C44    O55     1.253   .     A
C44    O56     1.257   .     A
C44    C140    1.455   1_655 S
O45    C54     1.206   .     D
O46    C57     1.255   .     A
O47    Y40     2.286   1_565 S
O47    C57     1.266   1_565 A
O48    C52     1.296   .     A
O49    C59     1.381   .     S
O50    C59     1.207   .     D
O51    C58     1.275   .     A
C52    C98     1.468   .     S
O53    C58     1.277   .     A
C54    C114    1.459   1_545 S
C57    O47     1.266   1_545 A
C57    C106    1.467   1_545 S
C58    C146    1.469   1_545 S
C59    C156    1.477   .     S
Y60    O62     2.242   .     S
Y60    O63     2.323   .     S
Y60    O66     2.259   .     S
Y60    O67     2.247   .     S
Y60    O69     2.262   .     S
Y60    O70     2.303   .     S
Y60    O71     2.251   .     S
Y61    O63     2.252   .     S
Y61    O65     2.228   .     S
Y61    O68     2.285   .     S
Y61    O69     2.242   .     S
Y61    O73     2.257   .     S
Y61    O75     2.252   .     S
Y61    O76     2.249   .     S
O62    C72     1.280   .     A
O63    C74     1.390   .     S
C64    O75     1.249   .     A
C64    O76     1.253   .     A
C64    C138    1.447   .     S
O65    C74     1.203   .     D
O66    C77     1.256   .     A
O67    C77     1.256   .     A
O68    C72     1.290   .     A
O69    C79     1.377   .     S
O70    C79     1.210   .     D
O71    C78     1.276   .     A
C72    C100    1.467   .     S
O73    C78     1.281   .     A
C74    C90     1.463   .     S
C77    C172    1.462   .     S
C78    C132    1.469   .     S
C79    C122    1.482   .     S
N80    C84     1.349   .     A
N80    N81     1.323   1_556 A
N80    H86     1.047   1_556 S
N81    H87     1.046   .     S
N81    N80     1.323   1_554 A
N81    C82     1.351   1_554 A
C82    C83     1.386   .     A
C82    N81     1.351   1_556 A
C82    C34     1.473   1_556 S
C83    C84     1.392   .     A
C83    H85     1.082   .     S
H86    N80     1.047   1_554 S
N88    N89     1.322   .     A
N88    C92     1.350   .     A
N88    H94     1.047   .     S
N89    C90     1.352   .     A
N89    H95     1.046   .     S
C90    C91     1.396   .     A
C91    C92     1.380   .     A
C91    H93     1.087   .     S
N96    N97     1.326   .     A
N96    C100    1.350   .     A
N96    H102    1.046   .     S
N97    C98     1.347   .     A
N97    H103    1.044   .     S
C98    C99     1.381   .     A
C99    C100    1.371   .     A
C99    H101    1.083   .     S
N104   N105    1.326   .     A
N104   C108    1.351   .     A
N104   H110    1.044   .     S
N105   C106    1.352   .     A
N105   H111    1.046   .     S
C106   C107    1.382   .     A
C106   C57     1.467   1_565 S
C107   C108    1.377   .     A
C107   H109    1.084   .     S
C108   C38     1.466   1_556 S
N112   N113    1.319   .     A
N112   C116    1.344   .     A
N112   H118    1.050   .     S
N113   C114    1.358   .     A
N113   H119    1.051   .     S
C114   C115    1.378   .     A
C114   C54     1.459   1_565 S
C115   C116    1.390   .     A
C115   H117    1.082   .     S
N120   N121    1.316   .     A
N120   C124    1.353   .     A
N120   H126    1.051   .     S
N121   C122    1.348   .     A
N121   H127    1.038   .     S
C122   C123    1.396   .     A
C123   C124    1.405   .     A
C123   H125    1.086   .     S
N128   N129    1.321   .     A
N128   C132    1.346   .     A
N128   H134    1.042   .     S
N129   C130    1.347   .     A
N129   H135    1.044   .     S
C130   C131    1.387   .     A
C130   C4      1.471   1_554 S
C131   C132    1.392   .     A
C131   H133    1.081   .     S
N136   N137    1.320   .     A
N136   C140    1.349   .     A
N136   H142    1.044   .     S
N137   C138    1.349   .     A
N137   H143    1.046   .     S
C138   C139    1.381   .     A
C139   C140    1.377   .     A
C139   H141    1.088   .     S
C140   C44     1.455   1_455 S
N144   N145    1.325   .     A
N144   H150    1.045   .     S
N144   C148    1.350   1_455 A
N145   H151    1.045   .     S
N145   C146    1.349   1_455 A
C146   C147    1.380   .     A
C146   N145    1.349   1_655 A
C146   C58     1.469   1_565 S
C147   C148    1.384   .     A
C147   H149    1.084   .     S
C148   N144    1.350   1_655 A
C148   C17     1.469   1_655 S
N152   N153    1.323   .     A
N152   H158    1.044   .     S
N152   C156    1.344   1_455 A
N153   C154    1.348   .     A
N153   H159    1.044   .     S
C154   C155    1.385   1_455 A
C155   C156    1.391   .     A
C155   H157    1.081   .     S
C155   C154    1.385   1_655 A
C156   N152    1.344   1_655 A
N160   N161    1.325   .     A
N160   C164    1.352   .     A
N160   H166    1.046   .     S
N161   C162    1.348   .     A
N161   H167    1.044   .     S
C162   C163    1.391   .     A
C162   C37     1.472   1_556 S
C163   C164    1.381   .     A
C163   H165    1.084   1_556 S
C164   C18     1.477   1_655 S
H165   C163    1.084   1_554 S
N168   N169    1.323   .     A
N168   C172    1.352   .     A
N168   H174    1.047   .     S
N169   C170    1.352   .     A
N169   H175    1.045   .     S
C170   C171    1.379   .     A
C171   C172    1.379   .     A
C171   H173    1.084   .     S
