data_lcy+N139+E70
_audit_creation_date              2025-01-21
_audit_creation_method            'Materials Studio'
_symmetry_space_group_name_H-M    'P1'
_symmetry_Int_Tables_number       1
_symmetry_cell_setting            triclinic
loop_
_symmetry_equiv_pos_as_xyz
  x,y,z
_cell_length_a                    17.3540
_cell_length_b                    18.3090
_cell_length_c                    17.6917
_cell_angle_alpha                 97.6505
_cell_angle_beta                  79.1386
_cell_angle_gamma                 87.1371
loop_
_atom_site_label
_atom_site_type_symbol
_atom_site_fract_x
_atom_site_fract_y
_atom_site_fract_z
_atom_site_U_iso_or_equiv
_atom_site_adp_type
_atom_site_occupancy
C0     C     1.07689   0.46299   0.84393   0.00000  Uiso   1.00
Sm1    Sm    0.12445   0.68979   0.91270   0.00000  Uiso   1.00
Sm2    Sm    0.16198   0.58287   0.83524   0.00000  Uiso   1.00
C3     C     0.19543   0.57683   0.99897   0.00000  Uiso   1.00
C4     C     0.26507   0.53509   0.69965   0.00000  Uiso   1.00
O5     O     0.25733   0.68454   0.87173   0.00000  Uiso   1.00
O6     O     0.20561   0.77189  -0.04286   0.00000  Uiso   1.00
O7     O     0.09010   0.63630   0.75635   0.00000  Uiso   1.00
O8     O     0.10942   0.74639   0.81461   0.00000  Uiso   1.00
O9     O     1.00125   0.65353   0.91148   0.00000  Uiso   1.00
O10    O     1.01218   0.74889   0.98627   0.00000  Uiso   1.00
O11    O     1.06154   0.52228   0.89088   0.00000  Uiso   1.00
O12    O     1.13562   0.46546   0.78977   0.00000  Uiso   1.00
O13    O     0.13822   0.62502   1.00661   0.00000  Uiso   1.00
O14    O     0.22709   0.54519   0.92916   0.00000  Uiso   1.00
O15    O     0.26839   0.59559   0.74230   0.00000  Uiso   1.00
O16    O     0.21546   0.49466   0.73234   0.00000  Uiso   1.00
C17    C     0.26852   0.74106   0.91563   0.00000  Uiso   1.00
C18    C     0.08411   0.70720   0.76104   0.00000  Uiso   1.00
C19    C     0.96591   0.70650   0.95956   0.00000  Uiso   1.00
C20    C     0.56579   0.79786   0.25350   0.00000  Uiso   1.00
Sm21   Sm    0.80198   0.97383   0.12357   0.00000  Uiso   1.00
Sm22   Sm    0.52634   0.89923   0.16660   0.00000  Uiso   1.00
C23    C     0.71765   0.83034   0.10329   0.00000  Uiso   1.00
C24    C     0.46982   0.84749   1.04360   0.00000  Uiso   1.00
O25    O     0.72758   0.97604   1.03193   0.00000  Uiso   1.00
O26    O     0.84623   0.92955   0.99667   0.00000  Uiso   1.00
O27    O     0.58506   0.99932   0.21056   0.00000  Uiso   1.00
O28    O     0.67931   1.00664   0.10907   0.00000  Uiso   1.00
O29    O     0.78304   1.00863   0.25075   0.00000  Uiso   1.00
O30    O     0.89719   0.95639   0.18919   0.00000  Uiso   1.00
O31    O     0.58746   0.79156   0.18065   0.00000  Uiso   1.00
O32    O     0.52665   0.85857   0.28281   0.00000  Uiso   1.00
O33    O     0.74735   0.86954   0.15321   0.00000  Uiso   1.00
O34    O     0.64364   0.83543   0.10377   0.00000  Uiso   1.00
O35    O     0.51322   0.90230   0.04339   0.00000  Uiso   1.00
O36    O     0.45635   0.81997   1.10700   0.00000  Uiso   1.00
C37    C     0.78238   0.94643   0.97632   0.00000  Uiso   1.00
C38    C     0.63570   1.03575   0.17285   0.00000  Uiso   1.00
C39    C     0.85265   0.98388   0.25423   0.00000  Uiso   1.00
C40    C     0.83032   1.05676   0.52943   0.00000  Uiso   1.00
Sm41   Sm    0.96789   0.07848   0.70565   0.00000  Uiso   1.00
Sm42   Sm    0.78573   0.15696   0.65724   0.00000  Uiso   1.00
C43    C     0.94038   0.20834   0.57974   0.00000  Uiso   1.00
C44    C     0.65047   0.21460   0.62902   0.00000  Uiso   1.00
O45    O     0.97461   0.15714   0.81562   0.00000  Uiso   1.00
O46    O    -0.01678   0.20309   0.71475   0.00000  Uiso   1.00
O47    O     0.72063   0.07520   0.72029   0.00000  Uiso   1.00
O48    O     0.83576   0.09550   0.74238   0.00000  Uiso   1.00
O49    O     0.96363  -0.03450   0.63612   0.00000  Uiso   1.00
O50    O     0.97131   0.97220   0.75540   0.00000  Uiso   1.00
O51    O     0.86530   1.06107   0.58593   0.00000  Uiso   1.00
O52    O     0.76924   1.10091   0.54089   0.00000  Uiso   1.00
O53    O     0.97153   0.15917   0.61336   0.00000  Uiso   1.00
O54    O     0.86722   0.22915   0.59619   0.00000  Uiso   1.00
O55    O     0.67997   0.23936   0.68673   0.00000  Uiso   1.00
O56    O     0.69390   0.16301   0.58297   0.00000  Uiso   1.00
C57    C     0.98300   0.21499   0.78599   0.00000  Uiso   1.00
C58    C     0.77819   0.05393   0.74867   0.00000  Uiso   1.00
C59    C     0.97125   0.93054   0.69208   0.00000  Uiso   1.00
C60    C     0.32594   0.49443   0.21212   0.00000  Uiso   1.00
Sm61   Sm    0.34597   0.21936   0.38511   0.00000  Uiso   1.00
Sm62   Sm    0.43158   0.44483   0.28842   0.00000  Uiso   1.00
C63    C     0.51795   0.28287   0.27941   0.00000  Uiso   1.00
C64    C     0.52551   0.55141   0.30900   0.00000  Uiso   1.00
O65    O     0.36076   0.27117   0.50428   0.00000  Uiso   1.00
O66    O     0.43367   0.17521   0.45218   0.00000  Uiso   1.00
O67    O     0.35224   0.38173   0.36645   0.00000  Uiso   1.00
O68    O     0.32105   0.32770   0.46770   0.00000  Uiso   1.00
O69    O     0.23170   0.26358   0.36088   0.00000  Uiso   1.00
O70    O     0.23098   0.18667   0.44359   0.00000  Uiso   1.00
O71    O     0.36684   0.43286   0.18739   0.00000  Uiso   1.00
O72    O     0.33607   0.52541   0.27821   0.00000  Uiso   1.00
O73    O     0.45482   0.25998   0.31813   0.00000  Uiso   1.00
O74    O     0.52477   0.34954   0.26598   0.00000  Uiso   1.00
O75    O     0.49499   0.51772   0.36477   0.00000  Uiso   1.00
O76    O     0.51464   0.52404   0.24184   0.00000  Uiso   1.00
C77    C     0.41755   0.22679   0.50902   0.00000  Uiso   1.00
C78    C     0.33420   0.38714   0.44043   0.00000  Uiso   1.00
C79    C     0.19110   0.22965   0.41150   0.00000  Uiso   1.00
N80    N     0.36067   0.80356   0.98578   0.00000  Uiso   1.00
H81    H     0.54398   0.79310   0.88921   0.00000  Uiso   1.00
C82    C     0.43641   0.81798   0.97716   0.00000  Uiso   1.00
C83    C     0.48064   0.79087   0.90489   0.00000  Uiso   1.00
C84    C     0.34629   0.76659   0.91973   0.00000  Uiso   1.00
S85    S     0.42621   0.74590   0.84477   0.00000  Uiso   1.00
N86    N     0.57239   0.15501   0.23706   0.00000  Uiso   1.00
H87    H     0.68370   0.29599   0.22810   0.00000  Uiso   1.00
C88    C     0.58481   0.22688   0.24944   0.00000  Uiso   1.00
C89    C     0.66219   0.24120   0.22360   0.00000  Uiso   1.00
C90    C     0.63930   0.11412   0.20202   0.00000  Uiso   1.00
S91    S     0.72127   0.16280   0.18209   0.00000  Uiso   1.00
N92    N     0.53779   0.20919   0.56179   0.00000  Uiso   1.00
H93    H     0.54173   0.32475   0.72006   0.00000  Uiso   1.00
C94    C     0.57201   0.24031   0.61889   0.00000  Uiso   1.00
C95    C     0.52434   0.29474   0.67010   0.00000  Uiso   1.00
C96    C     0.46432   0.24057   0.56953   0.00000  Uiso   1.00
S97    S     0.43518   0.31012   0.64633   0.00000  Uiso   1.00
N98    N     0.80625  -0.00987   0.85294   0.00000  Uiso   1.00
H99    H     0.68190   0.93452   0.74103   0.00000  Uiso   1.00
C100   C     0.77463   0.98981   0.78964   0.00000  Uiso   1.00
C101   C     0.71767   0.93961   0.78559   0.00000  Uiso   1.00
C102   C     0.77417   0.94003   0.89621   0.00000  Uiso   1.00
S103   S     0.70187   0.89224   0.86318   0.00000  Uiso   1.00
N104   N     0.83128   1.02143   0.39329   0.00000  Uiso   1.00
H105   H     0.96592  -0.04412   0.47965   0.00000  Uiso   1.00
C106   C     0.86134   1.01150   0.45522   0.00000  Uiso   1.00
C107   C     0.93075  -0.03311   0.43737   0.00000  Uiso   1.00
C108   C     0.87713   0.98527   0.32816   0.00000  Uiso   1.00
S109   S     0.96005  -0.06319   0.33997   0.00000  Uiso   1.00
N110   N     0.30637   0.45246   0.57430   0.00000  Uiso   1.00
H111   H     0.35656   0.53980   0.42358   0.00000  Uiso   1.00
C112   C     0.33033   0.45482   0.49757   0.00000  Uiso   1.00
C113   C     0.34379   0.52505   0.48149   0.00000  Uiso   1.00
C114   C     0.30462   0.51921   0.61694   0.00000  Uiso   1.00
S115   S     0.33099   0.58897   0.56362   0.00000  Uiso   1.00
N116   N     0.26818   0.51564   0.09308   0.00000  Uiso   1.00
H117   H     0.15495   0.67303   0.13543   0.00000  Uiso   1.00
C118   C     0.22050   0.56904   0.07472   0.00000  Uiso   1.00
C119   C     0.19270   0.62456   0.13706   0.00000  Uiso   1.00
C120   C     0.27340   0.53245   0.16975   0.00000  Uiso   1.00
S121   S     0.22254   0.61237   0.21948   0.00000  Uiso   1.00
N122   N     0.06820   0.21145   0.49617   0.00000  Uiso   1.00
H123   H     0.07912   0.32903   0.37036   0.00000  Uiso   1.00
C124   C     0.10533   0.24229   0.43686   0.00000  Uiso   1.00
C125   C     0.05856   0.29575   0.41508   0.00000  Uiso   1.00
C126   C    -0.00726   0.23837   0.51835   0.00000  Uiso   1.00
S127   S    -0.03580   0.30549   0.46830   0.00000  Uiso   1.00
N128   N     1.02552   0.82096   0.73315   0.00000  Uiso   1.00
H129   H    -0.05205   0.81113   0.57716   0.00000  Uiso   1.00
C130   C     0.98744   0.84983   0.68418   0.00000  Uiso   1.00
C131   C    -0.02389   0.79811   0.62378   0.00000  Uiso   1.00
C132   C     0.04319   0.74773   0.71213   0.00000  Uiso   1.00
S133   S     0.01335   0.71052   0.62939   0.00000  Uiso   1.00
N134   N     1.03360   0.33948   0.79999   0.00000  Uiso   1.00
H135   H     0.98476   0.42861   0.97900   0.00000  Uiso   1.00
C136   C     1.03269   0.39769   0.85537   0.00000  Uiso   1.00
C137   C     0.98880   0.38936   0.92688   0.00000  Uiso   1.00
C138   C     0.99012   0.28717   0.83028   0.00000  Uiso   1.00
S139   S     0.94816   0.30673   0.92725   0.00000  Uiso   1.00
N140   N     0.84676   0.77104   1.03975   0.00000  Uiso   1.00
H141   H     0.68146   0.71970  -0.01006   0.00000  Uiso   1.00
C142   C     0.76859   0.77586   0.04571   0.00000  Uiso   1.00
C143   C     0.74271   0.72694  -0.00862   0.00000  Uiso   1.00
C144   C     0.88051   0.71865   0.98072   0.00000  Uiso   1.00
S145   S     0.81778   0.67581  -0.07297   0.00000  Uiso   1.00
N146   N     0.56150   0.66813   0.26805   0.00000  Uiso   1.00
H147   H     0.59751   0.79448   0.40513   0.00000  Uiso   1.00
C148   C     0.57649   0.73641   0.29640   0.00000  Uiso   1.00
C149   C     0.58609   0.74293   0.37241   0.00000  Uiso   1.00
C150   C     0.55895   0.62265   0.32164   0.00000  Uiso   1.00
S151   S     0.57683   0.66164   0.40979   0.00000  Uiso   1.00
loop_
_geom_bond_atom_site_label_1
_geom_bond_atom_site_label_2
_geom_bond_distance
_geom_bond_site_symmetry_2
_ccdc_geom_bond_type
C0     O11     1.260   .     A
C0     O12     1.268   .     A
C0     C136    1.469   .     S
Sm1    O5      2.276   .     S
Sm1    O8      2.185   .     S
Sm1    O13     2.207   .     S
Sm1    O6      2.275   1_556 S
Sm1    O9      2.273   1_455 S
Sm1    O10     2.263   1_455 S
Sm2    O7      2.315   .     S
Sm2    O14     2.334   .     S
Sm2    O15     2.273   .     S
Sm2    O16     2.284   .     S
Sm2    O11     2.253   1_455 S
Sm2    O12     2.292   1_455 S
C3     O13     1.270   .     A
C3     O14     1.298   .     A
C3     C118    1.507   1_556 S
C4     O15     1.265   .     A
C4     O16     1.270   .     A
C4     C114    1.478   .     S
O5     C17     1.255   .     A
O6     Sm1     2.275   1_554 S
O6     C17     1.255   1_554 A
O7     C18     1.287   .     A
O8     C18     1.270   .     A
O9     C19     1.251   .     A
O9     Sm1     2.273   1_655 S
O10    C19     1.256   .     A
O10    Sm1     2.263   1_655 S
O11    Sm2     2.253   1_655 S
O12    Sm2     2.292   1_655 S
C17    C84     1.462   .     S
C17    O6      1.255   1_556 A
C18    C132    1.468   .     S
C19    C144    1.457   .     S
C20    O31     1.261   .     A
C20    O32     1.267   .     A
C20    C148    1.462   .     S
Sm21   O28     2.253   .     S
Sm21   O29     2.212   .     S
Sm21   O30     2.224   .     S
Sm21   O33     2.254   .     S
Sm21   O25     2.258   1_554 S
Sm21   O26     2.256   1_554 S
Sm22   O27     2.260   .     S
Sm22   O31     2.257   .     S
Sm22   O32     2.279   .     S
Sm22   O34     2.304   .     S
Sm22   O35     2.242   .     S
Sm22   O36     2.223   1_554 S
C23    O33     1.265   .     A
C23    O34     1.281   .     A
C23    C142    1.455   .     S
C24    O36     1.277   .     A
C24    C82     1.459   .     S
C24    O35     1.284   1_556 A
O25    C37     1.273   .     A
O25    Sm21    2.258   1_556 S
O26    C37     1.264   .     A
O26    Sm21    2.256   1_556 S
O27    C38     1.272   .     A
O28    C38     1.268   .     A
O29    C39     1.284   .     A
O30    C39     1.283   .     A
O35    C24     1.284   1_554 A
O36    Sm22    2.223   1_556 S
C37    C102    1.441   .     S
C38    C90     1.467   1_565 S
C39    C108    1.447   .     S
C40    O51     1.260   .     A
C40    O52     1.268   .     A
C40    C106    1.449   .     S
Sm41   O45     2.287   .     S
Sm41   O48     2.256   .     S
Sm41   O49     2.274   .     S
Sm41   O53     2.338   .     S
Sm41   O46     2.298   1_655 S
Sm41   O50     2.242   1_545 S
Sm42   O47     2.214   .     S
Sm42   O54     2.215   .     S
Sm42   O55     2.252   .     S
Sm42   O56     2.256   .     S
Sm42   O51     2.257   1_545 S
Sm42   O52     2.250   1_545 S
C43    O53     1.293   .     A
C43    O54     1.275   .     A
C43    C126    1.464   1_655 S
C44    O55     1.268   .     A
C44    O56     1.271   .     A
C44    C94     1.469   .     S
O45    C57     1.246   .     A
O46    Sm41    2.298   1_455 S
O46    C57     1.249   1_455 A
O47    C58     1.266   .     A
O48    C58     1.283   .     A
O49    C59     1.272   1_545 A
O50    C59     1.269   .     A
O50    Sm41    2.242   1_565 S
O51    Sm42    2.257   1_565 S
O52    Sm42    2.250   1_565 S
C57    C138    1.467   .     S
C57    O46     1.249   1_655 A
C58    C100    1.458   1_545 S
C59    C130    1.473   .     S
C59    O49     1.272   1_565 A
C60    O71     1.280   .     A
C60    O72     1.277   .     A
C60    C120    1.487   .     S
Sm61   O65     2.260   .     S
Sm61   O66     2.278   .     S
Sm61   O68     2.272   .     S
Sm61   O69     2.242   .     S
Sm61   O70     2.217   .     S
Sm61   O73     2.249   .     S
Sm62   O67     2.237   .     S
Sm62   O71     2.277   .     S
Sm62   O72     2.213   .     S
Sm62   O74     2.260   .     S
Sm62   O75     2.246   .     S
Sm62   O76     2.222   .     S
C63    O73     1.298   .     A
C63    O74     1.281   .     A
C63    C88     1.477   .     S
C64    O75     1.277   .     A
C64    O76     1.278   .     A
C64    C150    1.461   .     S
O65    C77     1.268   .     A
O66    C77     1.263   .     A
O67    C78     1.276   .     A
O68    C78     1.262   .     A
O69    C79     1.280   .     A
O70    C79     1.278   .     A
C77    C96     1.464   .     S
C78    C112    1.481   .     S
C79    C124    1.468   .     S
N80    C82     1.338   .     A
N80    C84     1.342   .     A
H81    C83     1.086   .     S
C82    C83     1.376   .     A
C83    S85     1.710   .     A
C84    S85     1.716   .     A
N86    C88     1.340   .     A
N86    C90     1.346   .     A
H87    C89     1.086   .     S
C88    C89     1.385   .     A
C89    S91     1.714   .     A
C90    S91     1.721   .     A
C90    C38     1.467   1_545 S
N92    C94     1.343   .     A
N92    C96     1.347   .     A
H93    C95     1.078   .     S
C94    C95     1.376   .     A
C95    S97     1.698   .     A
C96    S97     1.715   .     A
N98    C100    1.336   1_545 A
N98    C102    1.347   1_545 A
H99    C101    1.089   .     S
C100   C101    1.388   .     A
C100   N98     1.336   1_565 A
C100   C58     1.458   1_565 S
C101   S103    1.706   .     A
C102   S103    1.712   .     A
C102   N98     1.347   1_565 A
N104   C106    1.328   .     A
N104   C108    1.341   .     A
H105   C107    1.083   .     S
C106   C107    1.381   1_565 A
C107   S109    1.709   .     A
C107   C106    1.381   1_545 A
C108   S109    1.714   1_565 A
S109   C108    1.714   1_545 A
N110   C112    1.350   .     A
N110   C114    1.344   .     A
H111   C113    1.080   .     S
C112   C113    1.375   .     A
C113   S115    1.712   .     A
C114   S115    1.717   .     A
N116   C118    1.361   .     A
N116   C120    1.371   .     A
H117   C119    1.083   .     S
C118   C119    1.391   .     A
C118   C3      1.507   1_554 S
C119   S121    1.674   .     A
C120   S121    1.712   .     A
N122   C124    1.332   .     A
N122   C126    1.342   .     A
H123   C125    1.081   .     S
C124   C125    1.380   .     A
C125   S127    1.716   .     A
C126   S127    1.713   .     A
C126   C43     1.464   1_455 S
N128   C130    1.330   .     A
N128   C132    1.347   1_655 A
H129   C131    1.081   .     S
C130   C131    1.380   1_655 A
C131   S133    1.721   .     A
C131   C130    1.380   1_455 A
C132   S133    1.712   .     A
C132   N128    1.347   1_455 A
N134   C136    1.345   .     A
N134   C138    1.353   .     A
H135   C137    1.080   .     S
C136   C137    1.380   .     A
C137   S139    1.701   .     A
C138   S139    1.715   .     A
N140   C144    1.342   .     A
N140   C142    1.338   1_556 A
H141   C143    1.082   .     S
C142   C143    1.379   .     A
C142   N140    1.338   1_554 A
C143   S145    1.704   .     A
C144   S145    1.726   1_556 A
S145   C144    1.726   1_554 A
N146   C148    1.340   .     A
N146   C150    1.339   .     A
H147   C149    1.087   .     S
C148   C149    1.376   .     A
C149   S151    1.710   .     A
C150   S151    1.716   .     A
