data_lcy+N139+E35
_audit_creation_date              2025-01-21
_audit_creation_method            'Materials Studio'
_symmetry_space_group_name_H-M    'P1'
_symmetry_Int_Tables_number       1
_symmetry_cell_setting            triclinic
loop_
_symmetry_equiv_pos_as_xyz
  x,y,z
_cell_length_a                    25.8133
_cell_length_b                    26.3171
_cell_length_c                    25.7156
_cell_angle_alpha                 87.2446
_cell_angle_beta                  88.6086
_cell_angle_gamma                 84.3673
loop_
_atom_site_label
_atom_site_type_symbol
_atom_site_fract_x
_atom_site_fract_y
_atom_site_fract_z
_atom_site_U_iso_or_equiv
_atom_site_adp_type
_atom_site_occupancy
C0     C    -0.00320   0.52197   0.81343   0.00000  Uiso   1.00
Sm1    Sm    0.13328   0.68215   0.91398   0.00000  Uiso   1.00
Sm2    Sm    0.08105   0.56577   0.83377   0.00000  Uiso   1.00
C3     C     0.16792   0.56865   0.92442   0.00000  Uiso   1.00
C4     C     0.15727   0.54447   0.76553   0.00000  Uiso   1.00
O5     O     0.20310   0.72579   0.91059   0.00000  Uiso   1.00
O6     O     0.17552   0.69636   0.98519   0.00000  Uiso   1.00
O7     O     0.03537   0.64092   0.84902   0.00000  Uiso   1.00
O8     O     0.10384   0.68286   0.83280   0.00000  Uiso   1.00
O9     O     0.05693   0.66296   0.94835   0.00000  Uiso   1.00
O10    O     0.06956   0.74233   0.93367   0.00000  Uiso   1.00
O11    O     0.01612   0.52091   0.85873   0.00000  Uiso   1.00
O12    O     0.01940   0.54921   0.77872   0.00000  Uiso   1.00
O13    O     0.18397   0.60909   0.90390   0.00000  Uiso   1.00
O14    O     0.12733   0.55126   0.90797   0.00000  Uiso   1.00
O15    O     0.14401   0.58980   0.78002   0.00000  Uiso   1.00
O16    O     0.13455   0.50940   0.79080   0.00000  Uiso   1.00
C17    C     0.20959   0.72064   0.95993   0.00000  Uiso   1.00
C18    C     0.05553   0.67938   0.82847   0.00000  Uiso   1.00
C19    C     0.03787   0.70979   0.94895   0.00000  Uiso   1.00
C20    C     0.61526   0.77181   0.23764   0.00000  Uiso   1.00
Sm21   Sm    0.66758   0.92443   0.09807   0.00000  Uiso   1.00
Sm22   Sm    0.62071   0.84578   0.16167   0.00000  Uiso   1.00
C23    C     0.67427   0.81049   0.06675   0.00000  Uiso   1.00
C24    C     0.52842   0.82789   0.12076   0.00000  Uiso   1.00
O25    O     0.65989   0.96954   0.02356   0.00000  Uiso   1.00
O26    O     0.73534   0.93110   0.04312   0.00000  Uiso   1.00
O27    O     0.58315   0.90879   0.20799   0.00000  Uiso   1.00
O28    O     0.58753   0.95138   0.13230   0.00000  Uiso   1.00
O29    O     0.70232   0.89643   0.17394   0.00000  Uiso   1.00
O30    O     0.70200   0.97657   0.15049   0.00000  Uiso   1.00
O31    O     0.65379   0.79823   0.23214   0.00000  Uiso   1.00
O32    O     0.57919   0.78562   0.20612   0.00000  Uiso   1.00
O33    O     0.65142   0.85460   0.05453   0.00000  Uiso   1.00
O34    O     0.66375   0.78995   0.11079   0.00000  Uiso   1.00
O35    O     0.55658   0.86100   0.10125   0.00000  Uiso   1.00
O36    O     0.54767   0.80513   0.16132   0.00000  Uiso   1.00
C37    C     0.70736   0.95867   0.00977   0.00000  Uiso   1.00
C38    C     0.57381   0.94997   0.18043   0.00000  Uiso   1.00
C39    C     0.71483   0.94064   0.18455   0.00000  Uiso   1.00
C40    C     0.87940   0.04350   0.50101   0.00000  Uiso   1.00
Sm41   Sm    0.97949   0.11617   0.66005   0.00000  Uiso   1.00
Sm42   Sm    0.91382   0.09918   0.57604   0.00000  Uiso   1.00
C43    C     0.99163   0.16876   0.54502   0.00000  Uiso   1.00
C44    C     0.84091   0.17907   0.56115   0.00000  Uiso   1.00
O45    O     0.91562   0.16624   0.70023   0.00000  Uiso   1.00
O46    O     0.99359   0.18169   0.70979   0.00000  Uiso   1.00
O47    O     0.86104   0.06722   0.63571   0.00000  Uiso   1.00
O48    O     0.89217   0.12495   0.68305   0.00000  Uiso   1.00
O49    O     0.96537   0.03739   0.63898   0.00000  Uiso   1.00
O50    O     0.97862   0.05226   0.71937   0.00000  Uiso   1.00
O51    O     0.91872   0.02822   0.52829   0.00000  Uiso   1.00
O52    O     0.85853   0.08726   0.51246   0.00000  Uiso   1.00
O53    O     0.98177   0.17606   0.59315   0.00000  Uiso   1.00
O54    O     0.97032   0.13446   0.52283   0.00000  Uiso   1.00
O55    O     0.87544   0.17781   0.59529   0.00000  Uiso   1.00
O56    O     0.84551   0.14051   0.53323   0.00000  Uiso   1.00
C57    C     0.94610   0.19566   0.71853   0.00000  Uiso   1.00
C58    C     0.86102   0.09003   0.67797   0.00000  Uiso   1.00
C59    C     0.96877   0.01986   0.68630   0.00000  Uiso   1.00
C60    C     0.33618   0.42473   0.25548   0.00000  Uiso   1.00
Sm61   Sm    0.41258   0.35154   0.42055   0.00000  Uiso   1.00
Sm62   Sm    0.38776   0.39352   0.34363   0.00000  Uiso   1.00
C63    C     0.45273   0.28849   0.32721   0.00000  Uiso   1.00
C64    C     0.46129   0.46000   0.32849   0.00000  Uiso   1.00
O65    O     0.45817   0.31802   0.49190   0.00000  Uiso   1.00
O66    O     0.49258   0.36999   0.44216   0.00000  Uiso   1.00
O67    O     0.33916   0.45207   0.39176   0.00000  Uiso   1.00
O68    O     0.37681   0.41792   0.46334   0.00000  Uiso   1.00
O69    O     0.33231   0.33241   0.39832   0.00000  Uiso   1.00
O70    O     0.36112   0.30117   0.46908   0.00000  Uiso   1.00
O71    O     0.32141   0.39051   0.28743   0.00000  Uiso   1.00
O72    O     0.37717   0.44263   0.26949   0.00000  Uiso   1.00
O73    O     0.44781   0.28590   0.37645   0.00000  Uiso   1.00
O74    O     0.43528   0.32932   0.30152   0.00000  Uiso   1.00
O75    O     0.45926   0.42948   0.36763   0.00000  Uiso   1.00
O76    O     0.42626   0.45513   0.29595   0.00000  Uiso   1.00
C77    C     0.49805   0.34091   0.48183   0.00000  Uiso   1.00
C78    C     0.34493   0.45137   0.44115   0.00000  Uiso   1.00
C79    C     0.32343   0.30552   0.43851   0.00000  Uiso   1.00
C80    C     0.38744   0.78706   1.05797   0.00000  Uiso   1.00
C81    C     0.40690   0.76268   1.10422   0.00000  Uiso   1.00
C82    C     0.45236   0.77695   1.12472   0.00000  Uiso   1.00
C83    C     0.47905   0.81518   1.09932   0.00000  Uiso   1.00
C84    C     0.45865   0.83870   1.05314   0.00000  Uiso   1.00
N85    N     0.41404   0.82406   1.03369   0.00000  Uiso   1.00
C86    C     0.33999   0.77181   1.03411   0.00000  Uiso   1.00
N87    N     0.33386   0.77904   0.98172   0.00000  Uiso   1.00
C88    C     0.29218   0.76397   0.95720   0.00000  Uiso   1.00
C89    C     0.25367   0.73993   0.98582   0.00000  Uiso   1.00
C90    C     0.25870   0.73300   1.03984   0.00000  Uiso   1.00
C91    C     0.30146   0.74909   1.06414   0.00000  Uiso   1.00
H92    H     0.46708   0.75740   0.16018   0.00000  Uiso   1.00
H93    H     0.47832   0.86818   1.03231   0.00000  Uiso   1.00
H94    H     0.28965   0.77000   0.91535   0.00000  Uiso   1.00
H95    H     0.22977   0.71474   1.06330   0.00000  Uiso   1.00
H96    H     0.38832   0.73182   1.12387   0.00000  Uiso   1.00
H97    H     0.30382   0.74387   1.10601   0.00000  Uiso   1.00
C98    C     0.50835   0.14560   0.26412   0.00000  Uiso   1.00
C99    C     0.52588   0.15864   0.31248   0.00000  Uiso   1.00
C100   C     0.51003   0.20662   0.33124   0.00000  Uiso   1.00
C101   C     0.47727   0.24233   0.30191   0.00000  Uiso   1.00
C102   C     0.46362   0.22935   0.25213   0.00000  Uiso   1.00
N103   N     0.47891   0.18177   0.23489   0.00000  Uiso   1.00
C104   C     0.52120   0.09346   0.24430   0.00000  Uiso   1.00
N105   N     0.52101   0.08706   0.19214   0.00000  Uiso   1.00
C106   C     0.53437   0.04090   0.17122   0.00000  Uiso   1.00
C107   C     0.54949   0.99747   0.20338   0.00000  Uiso   1.00
C108   C     0.54775   0.00262   0.25738   0.00000  Uiso   1.00
C109   C     0.53343   0.05034   0.27799   0.00000  Uiso   1.00
H110   H     0.52236   0.21531   0.36952   0.00000  Uiso   1.00
H111   H     0.43869   0.25583   0.22814   0.00000  Uiso   1.00
H112   H     0.53480   1.03863   0.12932   0.00000  Uiso   1.00
H113   H     0.55938  -0.02971   0.28360   0.00000  Uiso   1.00
H114   H     0.55129   0.13221   0.33606   0.00000  Uiso   1.00
H115   H     0.53228   0.05310   0.31981   0.00000  Uiso   1.00
C116   C     0.70237   0.27752   0.54620   0.00000  Uiso   1.00
C117   C     0.73387   0.26759   0.50191   0.00000  Uiso   1.00
C118   C     0.78090   0.23729   0.50707   0.00000  Uiso   1.00
C119   C     0.79721   0.21864   0.55638   0.00000  Uiso   1.00
C120   C     0.76625   0.23193   0.60013   0.00000  Uiso   1.00
N121   N     0.71928   0.25965   0.59398   0.00000  Uiso   1.00
C122   C     0.64897   0.30145   0.53989   0.00000  Uiso   1.00
N123   N     0.60832   0.27632   0.55888   0.00000  Uiso   1.00
C124   C     0.55833   0.29105   0.54496   0.00000  Uiso   1.00
C125   C     0.54786   0.33224   0.50894   0.00000  Uiso   1.00
C126   C     0.58883   0.36069   0.49210   0.00000  Uiso   1.00
C127   C     0.63944   0.34522   0.50721   0.00000  Uiso   1.00
H128   H     0.80371   0.22704   0.47257   0.00000  Uiso   1.00
H129   H     0.77767   0.21735   0.63868   0.00000  Uiso   1.00
H130   H     0.52764   0.26837   0.55893   0.00000  Uiso   1.00
H131   H     0.58228   0.39293   0.46446   0.00000  Uiso   1.00
H132   H     0.72069   0.28045   0.46337   0.00000  Uiso   1.00
H133   H     0.67119   0.36550   0.49123   0.00000  Uiso   1.00
C134   C     0.78377   0.03391   0.81335   0.00000  Uiso   1.00
C135   C     0.76665   0.02198   0.76437   0.00000  Uiso   1.00
C136   C     0.79024   0.04188   0.71935   0.00000  Uiso   1.00
C137   C     0.82965   0.07451   0.72349   0.00000  Uiso   1.00
C138   C     0.84403   0.08678   0.77329   0.00000  Uiso   1.00
N139   N     0.82167   0.06588   0.81628   0.00000  Uiso   1.00
C140   C     0.76331   1.01165   0.86213   0.00000  Uiso   1.00
N141   N     0.79651   0.99879   0.90206   0.00000  Uiso   1.00
C142   C     0.77994   0.98045   0.94923   0.00000  Uiso   1.00
C143   C     0.72695   0.97592   0.95849   0.00000  Uiso   1.00
C144   C     0.69206   0.98897   0.91787   0.00000  Uiso   1.00
C145   C     0.71017   1.00638   0.86940   0.00000  Uiso   1.00
H146   H     0.77875   0.03087   0.68161   0.00000  Uiso   1.00
H147   H     0.87485   0.11102   0.77843   0.00000  Uiso   1.00
H148   H     0.80786   0.97087   0.97974   0.00000  Uiso   1.00
H149   H     0.65077   0.98579   0.92362   0.00000  Uiso   1.00
H150   H     0.73695  -0.00395   0.76095   0.00000  Uiso   1.00
H151   H     0.68278   0.01722   0.83863   0.00000  Uiso   1.00
C152   C     0.81826   0.97819   0.37101   0.00000  Uiso   1.00
C153   C     0.87238   0.97317   0.37763   0.00000  Uiso   1.00
C154   C     0.89284   0.99117   0.42234   0.00000  Uiso   1.00
C155   C     0.85931   1.01522   0.45929   0.00000  Uiso   1.00
C156   C     0.80544   1.01773   0.45204   0.00000  Uiso   1.00
N157   N     0.78643   0.99939   0.40873   0.00000  Uiso   1.00
C158   C     0.79522   0.96546   0.32222   0.00000  Uiso   1.00
N159   N     0.75565   0.93476   0.32357   0.00000  Uiso   1.00
C160   C     0.73027   0.92527   0.27984   0.00000  Uiso   1.00
C161   C     0.74282   0.94927   0.23194   0.00000  Uiso   1.00
C162   C     0.78299   0.98148   0.22982   0.00000  Uiso   1.00
C163   C     0.80993   0.98897   0.27478   0.00000  Uiso   1.00
H164   H     0.93464   0.98901   0.42666   0.00000  Uiso   1.00
H165   H     0.77855   1.03584   0.48012   0.00000  Uiso   1.00
H166   H     0.69931   0.90026   0.28267   0.00000  Uiso   1.00
H167   H     0.79376   1.00039   0.19334   0.00000  Uiso   1.00
H168   H     0.89839   0.95657   0.34795   0.00000  Uiso   1.00
H169   H     0.84070   1.01422   0.27299   0.00000  Uiso   1.00
C170   C     0.26280   0.51518   0.56846   0.00000  Uiso   1.00
C171   C     0.31081   0.53303   0.55375   0.00000  Uiso   1.00
C172   C     0.33566   0.51723   0.50750   0.00000  Uiso   1.00
C173   C     0.31222   0.48489   0.47537   0.00000  Uiso   1.00
C174   C     0.26249   0.47123   0.48945   0.00000  Uiso   1.00
N175   N     0.23987   0.48549   0.53551   0.00000  Uiso   1.00
C176   C     0.23927   0.52301   0.62099   0.00000  Uiso   1.00
N177   N     0.21205   0.48584   0.64388   0.00000  Uiso   1.00
C178   C     0.18891   0.49023   0.69178   0.00000  Uiso   1.00
C179   C     0.19123   0.53479   0.71914   0.00000  Uiso   1.00
C180   C     0.21977   0.57330   0.69671   0.00000  Uiso   1.00
C181   C     0.24420   0.56741   0.64791   0.00000  Uiso   1.00
H182   H     0.37478   0.52712   0.49871   0.00000  Uiso   1.00
H183   H     0.24400   0.44496   0.46645   0.00000  Uiso   1.00
H184   H     0.16671   0.45994   0.70733   0.00000  Uiso   1.00
H185   H     0.22194   0.60858   0.71621   0.00000  Uiso   1.00
H186   H     0.33088   0.55555   0.57946   0.00000  Uiso   1.00
H187   H     0.26503   0.59801   0.63077   0.00000  Uiso   1.00
C188   C     0.23751   0.49835   0.06341   0.00000  Uiso   1.00
C189   C     0.19765   0.47573   0.03951   0.00000  Uiso   1.00
C190   C     0.17604   0.49815  -0.00631   0.00000  Uiso   1.00
C191   C     0.19390   0.54294   0.97093   0.00000  Uiso   1.00
C192   C     0.23466   0.56372   0.99519   0.00000  Uiso   1.00
N193   N     0.25492   0.54132   0.04008   0.00000  Uiso   1.00
C194   C     0.26142   0.47733   0.11315   0.00000  Uiso   1.00
N195   N     0.30489   0.49704   0.12917   0.00000  Uiso   1.00
C196   C     0.32905   0.48083   0.17422   0.00000  Uiso   1.00
C197   C     0.30952   0.44241   0.20668   0.00000  Uiso   1.00
C198   C     0.26475   0.42152   0.19145   0.00000  Uiso   1.00
C199   C     0.24052   0.43882   0.14492   0.00000  Uiso   1.00
H200   H     0.14481   0.48058  -0.02361   0.00000  Uiso   1.00
H201   H     0.24979   0.59821   0.97917   0.00000  Uiso   1.00
H202   H     0.36355   0.49805   0.18460   0.00000  Uiso   1.00
H203   H     0.24842   0.39194   0.21556   0.00000  Uiso   1.00
H204   H     0.18285   0.44117   0.05536   0.00000  Uiso   1.00
H205   H     0.20563   0.42232   0.13497   0.00000  Uiso   1.00
C206   C     0.17468   0.25309   0.47063   0.00000  Uiso   1.00
C207   C     0.20981   0.25463   0.51119   0.00000  Uiso   1.00
C208   C     0.25937   0.26953   0.50032   0.00000  Uiso   1.00
C209   C     0.27353   0.28399   0.44930   0.00000  Uiso   1.00
C210   C     0.23773   0.28094   0.40950   0.00000  Uiso   1.00
N211   N     0.18977   0.26547   0.42090   0.00000  Uiso   1.00
C212   C     0.12180   0.23861   0.48247   0.00000  Uiso   1.00
N213   N     0.09792   0.25357   0.52767   0.00000  Uiso   1.00
C214   C     1.05268   0.23611   0.54500   0.00000  Uiso   1.00
C215   C     1.03026   0.19903   0.51782   0.00000  Uiso   1.00
C216   C     0.05217   0.18563   0.46925   0.00000  Uiso   1.00
C217   C     0.09770   0.20612   0.45100   0.00000  Uiso   1.00
H218   H     0.28598   0.27126   0.53195   0.00000  Uiso   1.00
H219   H     0.24763   0.29147   0.36953   0.00000  Uiso   1.00
H220   H     1.03655   0.24851   0.58207   0.00000  Uiso   1.00
H221   H     0.03616   0.15708   0.44715   0.00000  Uiso   1.00
H222   H     0.19896   0.24435   0.55098   0.00000  Uiso   1.00
H223   H     0.11572   0.19394   0.41462   0.00000  Uiso   1.00
C224   C     0.96401   0.86420   0.73500   0.00000  Uiso   1.00
C225   C     0.94913   0.90216   0.77034   0.00000  Uiso   1.00
C226   C     0.94860   0.95339   0.75379   0.00000  Uiso   1.00
C227   C     0.96202   0.96660   0.70210   0.00000  Uiso   1.00
C228   C     0.97266   0.92771   0.66705   0.00000  Uiso   1.00
N229   N     0.97490   0.87802   0.68449   0.00000  Uiso   1.00
C230   C     0.97923   0.81138   0.75382   0.00000  Uiso   1.00
N231   N     0.02407   0.78779   0.73404   0.00000  Uiso   1.00
C232   C     0.04676   0.74332   0.75534   0.00000  Uiso   1.00
C233   C     0.02452   0.72049   0.79963   0.00000  Uiso   1.00
C234   C     0.97642   0.74193   0.81874   0.00000  Uiso   1.00
C235   C     0.95371   0.78791   0.79608   0.00000  Uiso   1.00
H236   H     0.93952   0.98261   0.78176   0.00000  Uiso   1.00
H237   H     0.98264   0.93664   0.62674   0.00000  Uiso   1.00
H238   H     0.08363   0.72722   0.73932   0.00000  Uiso   1.00
H239   H     0.95822   0.72502   0.85285   0.00000  Uiso   1.00
H240   H     0.94198   0.89251   0.81112   0.00000  Uiso   1.00
H241   H     0.91784   0.80583   0.81249   0.00000  Uiso   1.00
C242   C     0.91357   0.39885   0.78115   0.00000  Uiso   1.00
C243   C     0.92323   0.43385   0.73990   0.00000  Uiso   1.00
C244   C     0.94538   0.47860   0.75045   0.00000  Uiso   1.00
C245   C     0.95655   0.48833   0.80192   0.00000  Uiso   1.00
C246   C    -0.06113   0.45609   0.84219   0.00000  Uiso   1.00
N247   N     0.92023   0.41161   0.83092   0.00000  Uiso   1.00
C248   C     0.91207   0.34459   0.77131   0.00000  Uiso   1.00
N249   N     0.94764   0.31062   0.79583   0.00000  Uiso   1.00
C250   C     0.95623   0.26121   0.78256   0.00000  Uiso   1.00
C251   C     0.92829   0.24387   0.74226   0.00000  Uiso   1.00
C252   C     0.88896   0.27711   0.71867   0.00000  Uiso   1.00
C253   C     0.88126   0.32804   0.73256   0.00000  Uiso   1.00
H254   H     0.95833   0.50267   0.71831   0.00000  Uiso   1.00
H255   H    -0.05435   0.46293   0.88251   0.00000  Uiso   1.00
H256   H     0.98669   0.23635   0.80159   0.00000  Uiso   1.00
H257   H     0.86712   0.26475   0.68690   0.00000  Uiso   1.00
H258   H     0.91940   0.42410   0.69981   0.00000  Uiso   1.00
H259   H     0.85320   0.35453   0.71205   0.00000  Uiso   1.00
C260   C     0.82045   0.76243   0.99679   0.00000  Uiso   1.00
C261   C     0.78973   0.80421   0.97378   0.00000  Uiso   1.00
C262   C     0.73914   0.81693   0.99295   0.00000  Uiso   1.00
C263   C     0.71926   0.78852   0.03523   0.00000  Uiso   1.00
C264   C     0.74964   0.74446   0.05388   0.00000  Uiso   1.00
N265   N     0.79884   0.73308   0.03490   0.00000  Uiso   1.00
C266   C     0.87631   0.75044   0.98275   0.00000  Uiso   1.00
N267   N     0.89857   0.70172  -0.00883   0.00000  Uiso   1.00
C268   C     0.94998   0.68810   0.98146   0.00000  Uiso   1.00
C269   C     0.98268   0.72480   0.96285   0.00000  Uiso   1.00
C270   C     0.96086   0.77540   0.95445   0.00000  Uiso   1.00
C271   C     0.90783   0.78841   0.96439   0.00000  Uiso   1.00
H272   H     0.71686   0.85074   0.97671   0.00000  Uiso   1.00
H273   H     0.73580   0.72104   0.08604   0.00000  Uiso   1.00
H274   H     0.96515   0.64856  -0.01195   0.00000  Uiso   1.00
H275   H     0.98464   0.80476   0.93955   0.00000  Uiso   1.00
H276   H     0.80483   0.82759   0.94227   0.00000  Uiso   1.00
H277   H     0.89220   0.82791   0.95875   0.00000  Uiso   1.00
C278   C     0.58240   0.63014   0.30391   0.00000  Uiso   1.00
C279   C     0.62857   0.63317   0.27448   0.00000  Uiso   1.00
C280   C     0.64391   0.68112   0.25869   0.00000  Uiso   1.00
C281   C     0.61285   0.72560   0.27153   0.00000  Uiso   1.00
C282   C     0.56908   0.72093   0.30411   0.00000  Uiso   1.00
N283   N     0.55486   0.67390   0.31901   0.00000  Uiso   1.00
C284   C     0.55848   0.58158   0.31112   0.00000  Uiso   1.00
N285   N     0.53823   0.56776   0.35850   0.00000  Uiso   1.00
C286   C     0.50991   0.52684   0.36537   0.00000  Uiso   1.00
C287   C     0.49822   0.49922   0.32254   0.00000  Uiso   1.00
C288   C     0.51855   0.51283   0.27344   0.00000  Uiso   1.00
C289   C     0.54963   0.55338   0.26778   0.00000  Uiso   1.00
H290   H     0.67692   0.68332   0.23212   0.00000  Uiso   1.00
H291   H     0.54374   0.75450   0.31391   0.00000  Uiso   1.00
H292   H     0.49401   0.51772   0.40366   0.00000  Uiso   1.00
H293   H     0.50970   0.49269   0.23947   0.00000  Uiso   1.00
H294   H     0.65068   0.59891   0.26124   0.00000  Uiso   1.00
H295   H     0.56412   0.56446   0.22942   0.00000  Uiso   1.00
loop_
_geom_bond_atom_site_label_1
_geom_bond_atom_site_label_2
_geom_bond_distance
_geom_bond_site_symmetry_2
_ccdc_geom_bond_type
C0     O11     1.276   .     A
C0     O12     1.283   .     A
C0     C245    1.474   1_455 S
Sm1    O5      2.228   .     S
Sm1    O6      2.219   .     S
Sm1    O8      2.238   .     S
Sm1    O9      2.233   .     S
Sm1    O10     2.235   .     S
Sm1    O13     2.239   .     S
Sm2    O7      2.247   .     S
Sm2    O11     2.209   .     S
Sm2    O12     2.243   .     S
Sm2    O14     2.273   .     S
Sm2    O15     2.227   .     S
Sm2    O16     2.238   .     S
C3     O13     1.267   .     A
C3     O14     1.273   .     A
C3     C191    1.487   .     S
C4     O15     1.279   .     A
C4     O16     1.284   .     A
C4     C179    1.480   .     S
O5     C17     1.283   .     A
O6     C17     1.283   .     A
O7     C18     1.270   .     A
O8     C18     1.267   .     A
O9     C19     1.282   .     A
O10    C19     1.283   .     A
C17    C89     1.476   .     S
C18    C233    1.464   .     S
C19    C269    1.480   1_455 S
C20    O31     1.270   .     A
C20    O32     1.264   .     A
C20    C281    1.467   .     S
Sm21   O25     2.207   .     S
Sm21   O26     2.237   .     S
Sm21   O28     2.287   .     S
Sm21   O29     2.229   .     S
Sm21   O30     2.228   .     S
Sm21   O33     2.275   .     S
Sm22   O27     2.220   .     S
Sm22   O31     2.286   .     S
Sm22   O32     2.250   .     S
Sm22   O34     2.213   .     S
Sm22   O35     2.291   .     S
Sm22   O36     2.258   .     S
C23    O33     1.278   .     A
C23    O34     1.266   .     A
C23    C263    1.486   .     S
C24    O35     1.266   .     A
C24    O36     1.265   .     A
C24    C83     1.475   1_554 S
O25    C37     1.276   .     A
O26    C37     1.285   .     A
O27    C38     1.272   .     A
O28    C38     1.279   .     A
O29    C39     1.281   .     A
O30    C39     1.282   .     A
C37    C143    1.468   1_554 S
C38    C107    1.485   .     S
C39    C161    1.470   .     S
C40    O51     1.269   .     A
C40    O52     1.267   .     A
C40    C155    1.467   1_545 S
Sm41   O45     2.268   .     S
Sm41   O46     2.258   .     S
Sm41   O48     2.309   .     S
Sm41   O49     2.234   .     S
Sm41   O50     2.217   .     S
Sm41   O53     2.281   .     S
Sm42   O47     2.217   .     S
Sm42   O51     2.276   .     S
Sm42   O52     2.249   .     S
Sm42   O54     2.216   .     S
Sm42   O55     2.276   .     S
Sm42   O56     2.260   .     S
C43    O53     1.277   .     A
C43    O54     1.267   .     A
C43    C215    1.479   .     S
C44    O55     1.263   .     A
C44    O56     1.266   .     A
C44    C119    1.462   .     S
O45    C57     1.270   .     A
O46    C57     1.263   .     A
O47    C58     1.267   .     A
O48    C58     1.292   .     A
O49    C59     1.282   .     A
O50    C59     1.280   .     A
C57    C251    1.463   .     S
C58    C137    1.472   .     S
C59    C227    1.466   1_545 S
C60    O71     1.270   .     A
C60    O72     1.266   .     A
C60    C197    1.479   .     S
Sm61   O65     2.297   .     S
Sm61   O66     2.255   .     S
Sm61   O68     2.221   .     S
Sm61   O69     2.272   .     S
Sm61   O70     2.277   .     S
Sm61   O73     2.220   .     S
Sm62   O67     2.282   .     S
Sm62   O71     2.277   .     S
Sm62   O72     2.258   .     S
Sm62   O74     2.288   .     S
Sm62   O75     2.267   .     S
Sm62   O76     2.277   .     S
C63    O73     1.269   .     A
C63    O74     1.283   .     A
C63    C101    1.485   .     S
C64    O75     1.261   .     A
C64    O76     1.267   .     A
C64    C287    1.472   .     S
O65    C77     1.258   .     A
O66    C77     1.248   .     A
O67    C78     1.282   .     A
O68    C78     1.269   .     A
O69    C79     1.254   .     A
O70    C79     1.259   .     A
C77    C125    1.470   .     S
C78    C173    1.469   .     S
C79    C209    1.472   .     S
C80    C81     1.404   .     A
C80    N85     1.364   .     A
C80    C86     1.481   .     S
C81    C82     1.390   .     A
C81    H96     1.082   .     S
C82    C83     1.402   .     A
C82    H92     1.083   1_556 S
C83    C84     1.402   .     A
C83    C24     1.475   1_556 S
C84    N85     1.363   .     A
C84    H93     1.082   .     S
C86    N87     1.363   .     A
C86    C91     1.406   .     A
N87    C88     1.361   .     A
C88    C89     1.405   .     A
C88    H94     1.083   .     S
C89    C90     1.400   .     A
C90    C91     1.392   .     A
C90    H95     1.083   .     S
C91    H97     1.081   .     S
H92    C82     1.083   1_554 S
C98    C99     1.403   .     A
C98    N103    1.366   .     A
C98    C104    1.491   .     S
C99    C100    1.394   .     A
C99    H114    1.082   .     S
C100   C101    1.405   .     A
C100   H110    1.083   .     S
C101   C102    1.403   .     A
C102   N103    1.367   .     A
C102   H111    1.082   .     S
C104   N105    1.360   .     A
C104   C109    1.410   .     A
N105   C106    1.362   .     A
C106   C107    1.407   1_545 A
C106   H112    1.082   1_545 S
C107   C106    1.407   1_565 A
C107   C108    1.401   1_565 A
C108   C109    1.399   .     A
C108   H113    1.083   .     S
C108   C107    1.401   1_545 A
C109   H115    1.081   .     S
H112   C106    1.082   1_565 S
C116   C117    1.403   .     A
C116   N121    1.361   .     A
C116   C122    1.467   .     S
C117   C118    1.391   .     A
C117   H132    1.083   .     S
C118   C119    1.397   .     A
C118   H128    1.083   .     S
C119   C120    1.402   .     A
C120   N121    1.361   .     A
C120   H129    1.083   .     S
C122   N123    1.363   .     A
C122   C127    1.398   .     A
N123   C124    1.362   .     A
C124   C125    1.402   .     A
C124   H130    1.082   .     S
C125   C126    1.403   .     A
C126   C127    1.389   .     A
C126   H131    1.083   .     S
C127   H133    1.083   .     S
C134   C135    1.404   .     A
C134   N139    1.357   .     A
C134   C140    1.468   1_545 S
C135   C136    1.398   .     A
C135   H150    1.083   .     S
C136   C137    1.403   .     A
C136   H146    1.082   .     S
C137   C138    1.403   .     A
C138   N139    1.353   .     A
C138   H147    1.082   .     S
C140   N141    1.362   .     A
C140   C145    1.400   .     A
C140   C134    1.468   1_565 S
N141   C142    1.359   .     A
C142   C143    1.398   .     A
C142   H148    1.082   .     S
C143   C144    1.404   .     A
C143   C37     1.468   1_556 S
C144   C145    1.393   .     A
C144   H149    1.083   .     S
C145   H151    1.083   1_565 S
H151   C145    1.083   1_545 S
C152   C153    1.404   .     A
C152   N157    1.360   .     A
C152   C158    1.468   .     S
C153   C154    1.399   .     A
C153   H168    1.083   .     S
C154   C155    1.401   .     A
C154   H164    1.083   .     S
C155   C156    1.402   .     A
C155   C40     1.467   1_565 S
C156   N157    1.356   .     A
C156   H165    1.083   .     S
C158   N159    1.362   .     A
C158   C163    1.402   .     A
N159   C160    1.361   .     A
C160   C161    1.403   .     A
C160   H166    1.083   .     S
C161   C162    1.401   .     A
C162   C163    1.395   .     A
C162   H167    1.084   .     S
C163   H169    1.083   .     S
C170   C171    1.405   .     A
C170   N175    1.363   .     A
C170   C176    1.483   .     S
C171   C172    1.399   .     A
C171   H186    1.082   .     S
C172   C173    1.402   .     A
C172   H182    1.083   .     S
C173   C174    1.401   .     A
C174   N175    1.360   .     A
C174   H183    1.083   .     S
C176   N177    1.363   .     A
C176   C181    1.404   .     A
N177   C178    1.361   .     A
C178   C179    1.403   .     A
C178   H184    1.083   .     S
C179   C180    1.405   .     A
C180   C181    1.399   .     A
C180   H185    1.083   .     S
C181   H187    1.082   .     S
C188   C189    1.406   .     A
C188   N193    1.365   .     A
C188   C194    1.492   .     S
C189   C190    1.396   .     A
C189   H204    1.079   .     S
C190   H200    1.083   .     S
C190   C191    1.404   1_554 A
C191   C192    1.405   .     A
C191   C190    1.404   1_556 A
C192   H201    1.083   .     S
C192   N193    1.363   1_556 A
N193   C192    1.363   1_554 A
C194   N195    1.362   .     A
C194   C199    1.411   .     A
N195   C196    1.360   .     A
C196   C197    1.404   .     A
C196   H202    1.083   .     S
C197   C198    1.400   .     A
C198   C199    1.399   .     A
C198   H203    1.083   .     S
C199   H205    1.079   .     S
C206   C207    1.403   .     A
C206   N211    1.362   .     A
C206   C212    1.474   .     S
C207   C208    1.392   .     A
C207   H222    1.083   .     S
C208   C209    1.399   .     A
C208   H218    1.083   .     S
C209   C210    1.406   .     A
C210   N211    1.362   .     A
C210   H219    1.083   .     S
C212   N213    1.359   .     A
C212   C217    1.403   .     A
N213   C214    1.354   1_455 A
C214   C215    1.404   .     A
C214   H220    1.083   .     S
C214   N213    1.354   1_655 A
C215   C216    1.405   1_655 A
C216   C217    1.402   .     A
C216   H221    1.083   .     S
C216   C215    1.405   1_455 A
C217   H223    1.083   .     S
C224   C225    1.402   .     A
C224   N229    1.362   .     A
C224   C230    1.469   .     S
C225   C226    1.393   .     A
C225   H240    1.083   .     S
C226   C227    1.401   .     A
C226   H236    1.083   .     S
C227   C228    1.399   .     A
C227   C59     1.466   1_565 S
C228   N229    1.358   .     A
C228   H237    1.082   .     S
C230   C235    1.406   .     A
C230   N231    1.358   1_655 A
N231   C232    1.354   .     A
N231   C230    1.358   1_455 A
C232   C233    1.399   .     A
C232   H238    1.083   .     S
C233   C234    1.401   1_455 A
C234   C235    1.399   .     A
C234   H239    1.082   .     S
C234   C233    1.401   1_655 A
C235   H241    1.083   .     S
C242   C243    1.405   .     A
C242   N247    1.358   .     A
C242   C248    1.467   .     S
C243   C244    1.399   .     A
C243   H258    1.083   .     S
C244   C245    1.402   .     A
C244   H254    1.083   .     S
C245   C246    1.403   1_655 A
C245   C0      1.474   1_655 S
C246   H255    1.082   .     S
C246   C245    1.403   1_455 A
C246   N247    1.355   1_455 A
N247   C246    1.355   1_655 A
C248   N249    1.361   .     A
C248   C253    1.401   .     A
N249   C250    1.356   .     A
C250   C251    1.396   .     A
C250   H256    1.083   .     S
C251   C252    1.403   .     A
C252   C253    1.398   .     A
C252   H257    1.084   .     S
C253   H259    1.083   .     S
C260   C261    1.406   .     A
C260   C266    1.485   .     S
C260   N265    1.361   1_556 A
C261   C262    1.400   .     A
C261   H276    1.082   .     S
C262   H272    1.083   .     S
C262   C263    1.405   1_556 A
C263   C264    1.406   .     A
C263   C262    1.405   1_554 A
C264   N265    1.360   .     A
C264   H273    1.082   .     S
N265   C260    1.361   1_554 A
C266   C271    1.407   .     A
C266   N267    1.362   1_556 A
N267   C266    1.362   1_554 A
N267   C268    1.361   1_554 A
C268   C269    1.404   .     A
C268   N267    1.361   1_556 A
C268   H274    1.082   1_556 S
C269   C270    1.403   .     A
C269   C19     1.480   1_655 S
C270   C271    1.398   .     A
C270   H275    1.083   .     S
C271   H277    1.082   .     S
H274   C268    1.082   1_554 S
C278   C279    1.403   .     A
C278   N283    1.361   .     A
C278   C284    1.475   .     S
C279   C280    1.398   .     A
C279   H294    1.083   .     S
C280   C281    1.401   .     A
C280   H290    1.083   .     S
C281   C282    1.402   .     A
C282   N283    1.360   .     A
C282   H291    1.083   .     S
C284   N285    1.361   .     A
C284   C289    1.404   .     A
N285   C286    1.362   .     A
C286   C287    1.403   .     A
C286   H292    1.083   .     S
C287   C288    1.400   .     A
C288   C289    1.397   .     A
C288   H293    1.084   .     S
C289   H295    1.083   .     S
