data_lcy+N173+E191
_audit_creation_date              2025-01-21
_audit_creation_method            'Materials Studio'
_symmetry_space_group_name_H-M    'P1'
_symmetry_Int_Tables_number       1
_symmetry_cell_setting            triclinic
loop_
_symmetry_equiv_pos_as_xyz
  x,y,z
_cell_length_a                    28.9557
_cell_length_b                    29.8325
_cell_length_c                    30.0281
_cell_angle_alpha                 94.8926
_cell_angle_beta                  86.1529
_cell_angle_gamma                 101.3804
loop_
_atom_site_label
_atom_site_type_symbol
_atom_site_fract_x
_atom_site_fract_y
_atom_site_fract_z
_atom_site_U_iso_or_equiv
_atom_site_adp_type
_atom_site_occupancy
Gd0    Gd    0.13891   0.66632   0.80788   0.00000  Uiso   1.00
Gd1    Gd    0.13667   0.57776   0.90521   0.00000  Uiso   1.00
O2     O     0.08414   0.53443   0.86157   0.00000  Uiso   1.00
O3     O     0.09899   0.59302   0.81970   0.00000  Uiso   1.00
O4     O     0.15424   0.60071   0.82491   0.00000  Uiso   1.00
O5     O     0.19084   0.55624   0.85250   0.00000  Uiso   1.00
O6     O     0.12514   0.73019   0.78722   0.00000  Uiso   1.00
O7     O     0.07665   0.66739   0.76865   0.00000  Uiso   1.00
O8     O     0.20178   0.69901   0.84706   0.00000  Uiso   1.00
C9     C     0.08693   0.71118   0.76930   0.00000  Uiso   1.00
O10    O     0.18287   0.64430   0.89062   0.00000  Uiso   1.00
O11    O     0.09415   0.67913   0.87073   0.00000  Uiso   1.00
C12    C     0.18643   0.57730   0.81844   0.00000  Uiso   1.00
O13    O     0.08383   0.62302   0.92047   0.00000  Uiso   1.00
O14    O     0.18374   0.53359   0.92674   0.00000  Uiso   1.00
O15    O     0.17850   0.59625   0.96441   0.00000  Uiso   1.00
C16    C     0.07657   0.55184   0.82636   0.00000  Uiso   1.00
C17    C     0.19426   0.55949   0.96186   0.00000  Uiso   1.00
C18    C     0.07424   0.65892   0.90524   0.00000  Uiso   1.00
C19    C     0.20913   0.68204   0.88243   0.00000  Uiso   1.00
Gd20   Gd    0.66914   0.82561   0.11266   0.00000  Uiso   1.00
Gd21   Gd    0.57479   0.92438   0.13686   0.00000  Uiso   1.00
O22    O     0.53808   0.86934   0.09054   0.00000  Uiso   1.00
O23    O     0.59826   0.83478   0.08873   0.00000  Uiso   1.00
O24    O     0.59360   0.81408   0.13739   0.00000  Uiso   1.00
O25    O     0.57037   0.86736   0.18516   0.00000  Uiso   1.00
O26    O     0.73993   0.82029   0.08781   0.00000  Uiso   1.00
O27    O     0.68073   0.77920   0.05270   0.00000  Uiso   1.00
O28    O     0.68837   0.87017   0.17452   0.00000  Uiso   1.00
C29    C     0.72584   0.79136   0.05522   0.00000  Uiso   1.00
O30    O     0.63433   0.91181   0.17345   0.00000  Uiso   1.00
O31    O     0.68011   0.88490   0.06918   0.00000  Uiso   1.00
C32    C     0.57748   0.82622   0.17599   0.00000  Uiso   1.00
O33    O     0.63164   0.93697   0.08158   0.00000  Uiso   1.00
O34    O     0.52266   0.94211   0.19071   0.00000  Uiso   1.00
O35    O     0.59000   0.98682   0.18298   0.00000  Uiso   1.00
C36    C     0.55837   0.83776   0.07369   0.00000  Uiso   1.00
C37    C     0.54861   0.98081   0.20169   0.00000  Uiso   1.00
C38    C     0.66498   0.92039   0.06011   0.00000  Uiso   1.00
C39    C     0.66884   0.90214   0.19200   0.00000  Uiso   1.00
Gd40   Gd    0.88953   0.08869   0.63253   0.00000  Uiso   1.00
Gd41   Gd    0.83923   0.13710   0.62462   0.00000  Uiso   1.00
O42    O     0.87144   0.18479   0.67824   0.00000  Uiso   1.00
O43    O     0.92427   0.14217   0.68424   0.00000  Uiso   1.00
O44    O     0.93734   0.12164   0.58075   0.00000  Uiso   1.00
O45    O     0.89263   0.17185   0.57397   0.00000  Uiso   1.00
O46    O     0.88529   1.03457   0.68276   0.00000  Uiso   1.00
O47    O     0.94487   0.04739   0.63932   0.00000  Uiso   1.00
O48    O     0.85472   0.03953   0.57702   0.00000  Uiso   1.00
C49    C     0.92536   0.02524   0.67138   0.00000  Uiso   1.00
O50    O     0.80777   0.08797   0.57035   0.00000  Uiso   1.00
O51    O     0.84043   0.05553   0.68548   0.00000  Uiso   1.00
C52    C     0.93008   0.15624   0.56308   0.00000  Uiso   1.00
O53    O     0.78983   0.10103   0.67791   0.00000  Uiso   1.00
O54    O     0.79789   0.19386   0.61904   0.00000  Uiso   1.00
O55    O     0.78087   0.13595   0.57647   0.00000  Uiso   1.00
C56    C     0.90790   0.17855   0.69554   0.00000  Uiso   1.00
C57    C     0.77345   0.17581   0.58705   0.00000  Uiso   1.00
C58    C     0.80290   0.07001   0.69854   0.00000  Uiso   1.00
C59    C     0.82303   0.05200   0.55581   0.00000  Uiso   1.00
Gd60   Gd    0.34370   0.39078   0.36402   0.00000  Uiso   1.00
Gd61   Gd    0.40746   0.38630   0.40615   0.00000  Uiso   1.00
O62    O     0.38422   0.43666   0.45691   0.00000  Uiso   1.00
O63    O     0.32410   0.44306   0.41710   0.00000  Uiso   1.00
O64    O     0.30002   0.33803   0.40188   0.00000  Uiso   1.00
O65    O     0.35794   0.33244   0.44418   0.00000  Uiso   1.00
O66    O     0.35074   0.43711   0.30802   0.00000  Uiso   1.00
O67    O     0.28403   0.39557   0.32057   0.00000  Uiso   1.00
O68    O     0.36298   0.33456   0.31654   0.00000  Uiso   1.00
C69    C     0.30884   0.42438   0.29590   0.00000  Uiso   1.00
O70    O     0.42439   0.33407   0.35620   0.00000  Uiso   1.00
O71    O     0.39160   0.44665   0.32945   0.00000  Uiso   1.00
C72    C     0.31432   0.32282   0.43522   0.00000  Uiso   1.00
O73    O     0.45188   0.44406   0.36911   0.00000  Uiso   1.00
O74    O     0.41210   0.33266   0.45526   0.00000  Uiso   1.00
O75    O     0.47381   0.37830   0.43686   0.00000  Uiso   1.00
C76    C     0.34620   0.45168   0.45344   0.00000  Uiso   1.00
C77    C     0.45673   0.34284   0.45676   0.00000  Uiso   1.00
C78    C     0.43322   0.46371   0.34108   0.00000  Uiso   1.00
C79    C     0.39733   0.31653   0.32548   0.00000  Uiso   1.00
Ni80   Ni    0.39198   0.74882   0.97608   0.00000  Uiso   1.00
C81    C     0.53218   0.80275   0.04272   0.00000  Uiso   1.00
C82    C     0.49926   0.76722   0.06110   0.00000  Uiso   1.00
C83    C     0.45825   0.74850   0.03867   0.00000  Uiso   1.00
C84    C     0.48467   0.79512   0.97841   0.00000  Uiso   1.00
C85    C     0.52601   0.81492  -0.00018   0.00000  Uiso   1.00
H86    H     0.22526   0.67057   0.97046   0.00000  Uiso   1.00
H87    H     0.28403   0.74630   0.85726   0.00000  Uiso   1.00
H88    H     0.35739   0.77274   0.89671   0.00000  Uiso   1.00
H89    H     0.30063   0.69658   1.00688   0.00000  Uiso   1.00
N90    N     0.33333   0.73409   0.95244   0.00000  Uiso   1.00
N91    N     0.45090   0.76428  -0.00091   0.00000  Uiso   1.00
H92    H     0.50249   0.75789   0.09466   0.00000  Uiso   1.00
H93    H     0.43071   0.72408   0.05442   0.00000  Uiso   1.00
H94    H     0.47790   0.80707   0.94691   0.00000  Uiso   1.00
H95    H     0.55036   0.84287   0.98520   0.00000  Uiso   1.00
C96    C     0.24980   0.70341   0.90938   0.00000  Uiso   1.00
C97    C     0.28661   0.73487   0.89006   0.00000  Uiso   1.00
C98    C     0.32831   0.74978   0.91225   0.00000  Uiso   1.00
C99    C     0.29668   0.70700   0.97393   0.00000  Uiso   1.00
C100   C     0.25410   0.69154   0.95291   0.00000  Uiso   1.00
Ni101  Ni    0.46660   0.14290   0.27744   0.00000  Uiso   1.00
C102   C     0.40568   0.27320   0.30416   0.00000  Uiso   1.00
C103   C     0.38215   0.23260   0.32276   0.00000  Uiso   1.00
C104   C     0.40129   0.19311   0.31510   0.00000  Uiso   1.00
C105   C     0.46631   0.23349   0.27307   0.00000  Uiso   1.00
C106   C     0.44854   0.27362   0.27975   0.00000  Uiso   1.00
H107   H     0.46807   0.97743   0.25816   0.00000  Uiso   1.00
H108   H     0.58567   0.07039   0.19887   0.00000  Uiso   1.00
H109   H     0.55029   0.13477   0.23073   0.00000  Uiso   1.00
H110   H     0.43574   0.04531   0.28971   0.00000  Uiso   1.00
N111   N     0.49266   0.09260   0.26255   0.00000  Uiso   1.00
N112   N     0.44218   0.19443   0.29007   0.00000  Uiso   1.00
H113   H     0.35138   0.23234   0.34548   0.00000  Uiso   1.00
H114   H     0.38478   0.16200   0.33036   0.00000  Uiso   1.00
H115   H     0.50033   0.23358   0.25578   0.00000  Uiso   1.00
H116   H     0.46957   0.30534   0.26849   0.00000  Uiso   1.00
C117   C     0.53086   1.01854   0.22763   0.00000  Uiso   1.00
C118   C     0.55403   0.06349   0.22050   0.00000  Uiso   1.00
C119   C     0.53408   0.10011   0.23816   0.00000  Uiso   1.00
C120   C     0.46937   0.04971   0.27091   0.00000  Uiso   1.00
C121   C     0.48788   1.01157   0.25321   0.00000  Uiso   1.00
Ni122  Ni    0.61608   0.25666   0.51474   0.00000  Uiso   1.00
C123   C     0.74049   0.19863   0.56459   0.00000  Uiso   1.00
C124   C     0.73732   0.24494   0.57515   0.00000  Uiso   1.00
C125   C     0.70158   0.26308   0.55733   0.00000  Uiso   1.00
C126   C     0.67595   0.19301   0.51517   0.00000  Uiso   1.00
C127   C     0.71116   0.17379   0.53209   0.00000  Uiso   1.00
H128   H     0.51502   0.37257   0.52313   0.00000  Uiso   1.00
H129   H     0.46993   0.25399   0.43317   0.00000  Uiso   1.00
H130   H     0.53535   0.22003   0.45692   0.00000  Uiso   1.00
H131   H     0.57982   0.33734   0.54441   0.00000  Uiso   1.00
N132   N     0.56217   0.27770   0.50083   0.00000  Uiso   1.00
N133   N     0.66996   0.23616   0.52971   0.00000  Uiso   1.00
H134   H     0.76164   0.26671   0.59747   0.00000  Uiso   1.00
H135   H     0.69858   0.29838   0.56655   0.00000  Uiso   1.00
H136   H     0.65254   0.17269   0.49132   0.00000  Uiso   1.00
H137   H     0.71456   0.13916   0.52088   0.00000  Uiso   1.00
C138   C     0.48735   0.31624   0.47686   0.00000  Uiso   1.00
C139   C     0.49291   0.27237   0.45861   0.00000  Uiso   1.00
C140   C     0.53070   0.25347   0.47139   0.00000  Uiso   1.00
C141   C     0.55551   0.31899   0.52037   0.00000  Uiso   1.00
C142   C     0.51854   0.33887   0.50864   0.00000  Uiso   1.00
Ni143  Ni    0.73208   0.99703   0.87955   0.00000  Uiso   1.00
C144   C     0.78003   0.05463   0.74150   0.00000  Uiso   1.00
C145   C     0.80093   0.07513   0.78090   0.00000  Uiso   1.00
C146   C     0.78515   0.05748   0.82203   0.00000  Uiso   1.00
C147   C     0.72962  -0.00140   0.78631   0.00000  Uiso   1.00
C148   C     0.74463   0.01521   0.74420   0.00000  Uiso   1.00
H149   H     0.73543   0.99615   0.04476   0.00000  Uiso   1.00
H150   H     0.63695   0.88735   0.97873   0.00000  Uiso   1.00
H151   H     0.66482   0.91906   0.90627   0.00000  Uiso   1.00
H152   H     0.76193   0.02568   0.97038   0.00000  Uiso   1.00
N153   N     0.71406   0.97415   0.93491   0.00000  Uiso   1.00
N154   N     0.75007   0.01990   0.82415   0.00000  Uiso   1.00
H155   H     0.83051   0.10368   0.77960   0.00000  Uiso   1.00
H156   H     0.80176   0.07309   0.85230   0.00000  Uiso   1.00
H157   H     0.70251   0.96805   0.78867   0.00000  Uiso   1.00
H158   H     0.72988   0.99676   0.71417   0.00000  Uiso   1.00
C159   C     0.68337   0.93987   0.01742   0.00000  Uiso   1.00
C160   C     0.66425   0.91791   0.97780   0.00000  Uiso   1.00
C161   C     0.68000   0.93574   0.93677   0.00000  Uiso   1.00
C162   C     0.73429   0.99558   0.97279   0.00000  Uiso   1.00
C163   C     0.71925   0.97892   0.01484   0.00000  Uiso   1.00
Ni164  Ni    0.74842   0.98323   0.37143   0.00000  Uiso   1.00
C165   C     0.80447   0.02914   0.51257   0.00000  Uiso   1.00
C166   C     0.82433   0.99583   0.48583   0.00000  Uiso   1.00
C167   C     0.80781   0.98184   0.44256   0.00000  Uiso   1.00
C168   C     0.75452   0.03311   0.45164   0.00000  Uiso   1.00
C169   C     0.76881   0.04695   0.49458   0.00000  Uiso   1.00
H170   H     0.74528   0.89044   0.23209   0.00000  Uiso   1.00
H171   H     0.63531   0.97084   0.25006   0.00000  Uiso   1.00
H172   H     0.66897   0.00381   0.32256   0.00000  Uiso   1.00
H173   H     0.77485   0.92387   0.30372   0.00000  Uiso   1.00
N174   N     0.72355   0.96494   0.31634   0.00000  Uiso   1.00
N175   N     0.77338   0.00078   0.42672   0.00000  Uiso   1.00
H176   H     0.85274   0.98167   0.49727   0.00000  Uiso   1.00
H177   H     0.82279   0.95645   0.42145   0.00000  Uiso   1.00
H178   H     0.72817   0.04821   0.43768   0.00000  Uiso   1.00
H179   H     0.75276   0.07292   0.51308   0.00000  Uiso   1.00
C180   C     0.68723   0.92711   0.23462   0.00000  Uiso   1.00
C181   C     0.66622   0.96029   0.26071   0.00000  Uiso   1.00
C182   C     0.68524   0.97898   0.30198   0.00000  Uiso   1.00
C183   C     0.74477   0.93433   0.29126   0.00000  Uiso   1.00
C184   C     0.72749   0.91533   0.25054   0.00000  Uiso   1.00
Ni185  Ni    0.26480   0.52807   0.63065   0.00000  Uiso   1.00
C186   C     0.32624   0.47505   0.49399   0.00000  Uiso   1.00
C187   C     0.28407   0.49219   0.49458   0.00000  Uiso   1.00
C188   C     0.26464   0.50889   0.53565   0.00000  Uiso   1.00
C189   C     0.32645   0.49111   0.57447   0.00000  Uiso   1.00
C190   C     0.34693   0.47460   0.53490   0.00000  Uiso   1.00
H191   H     0.15688   0.59344   0.73879   0.00000  Uiso   1.00
H192   H     0.26894   0.54458   0.79611   0.00000  Uiso   1.00
H193   H     0.29908   0.52481   0.71905   0.00000  Uiso   1.00
H194   H     0.18845   0.57153   0.66380   0.00000  Uiso   1.00
N195   N     0.24503   0.54733   0.68782   0.00000  Uiso   1.00
N196   N     0.28647   0.50809   0.57448   0.00000  Uiso   1.00
H197   H     0.26575   0.49136   0.46407   0.00000  Uiso   1.00
H198   H     0.23183   0.52127   0.53642   0.00000  Uiso   1.00
H199   H     0.34171   0.48942   0.60602   0.00000  Uiso   1.00
H200   H     0.37772   0.45955   0.53700   0.00000  Uiso   1.00
C201   C     0.21082   0.57143   0.77385   0.00000  Uiso   1.00
C202   C     0.25124   0.55182   0.76766   0.00000  Uiso   1.00
C203   C     0.26816   0.54036   0.72400   0.00000  Uiso   1.00
C204   C     0.20644   0.56701   0.69300   0.00000  Uiso   1.00
C205   C     0.18900   0.57977   0.73571   0.00000  Uiso   1.00
Ni206  Ni    0.25750   0.49214   0.12596   0.00000  Uiso   1.00
C207   C     0.21621   0.54612   0.99957   0.00000  Uiso   1.00
C208   C     0.20510   0.56512   0.04229   0.00000  Uiso   1.00
C209   C     0.21873   0.54782   0.07951   0.00000  Uiso   1.00
C210   C     0.25581   0.49498   0.03349   0.00000  Uiso   1.00
C211   C     0.24198   0.51077   0.99494   0.00000  Uiso   1.00
H212   H     0.24907   0.48357   0.28933   0.00000  Uiso   1.00
H213   H     0.33761   0.40186   0.21160   0.00000  Uiso   1.00
H214   H     0.31527   0.43046   0.14286   0.00000  Uiso   1.00
H215   H     0.22941   0.51125   0.21854   0.00000  Uiso   1.00
N216   N     0.27120   0.47138   0.17792   0.00000  Uiso   1.00
N217   N     0.24335   0.51348   0.07450   0.00000  Uiso   1.00
H218   H     0.18369   0.59129   0.04707   0.00000  Uiso   1.00
H219   H     0.20873   0.56077   0.11276   0.00000  Uiso   1.00
H220   H     0.27544   0.46747   0.03080   0.00000  Uiso   1.00
H221   H     0.25026   0.49509   0.96224   0.00000  Uiso   1.00
C222   C     0.29349   0.43942   0.25539   0.00000  Uiso   1.00
C223   C     0.31301   0.42509   0.21396   0.00000  Uiso   1.00
C224   C     0.30086   0.44129   0.17524   0.00000  Uiso   1.00
C225   C     0.25233   0.48656   0.21775   0.00000  Uiso   1.00
C226   C     0.26308   0.47069   0.25749   0.00000  Uiso   1.00
Ni227  Ni    0.12089   0.24350   0.49747   0.00000  Uiso   1.00
C228   C     0.27692   0.30109   0.46561   0.00000  Uiso   1.00
C229   C     0.26038   0.25363   0.46159   0.00000  Uiso   1.00
C230   C     0.21330   0.23640   0.47439   0.00000  Uiso   1.00
C231   C     0.19989   0.31147   0.49541   0.00000  Uiso   1.00
C232   C     0.24673   0.32989   0.48455   0.00000  Uiso   1.00
H233   H     0.99110   0.11543   0.50902   0.00000  Uiso   1.00
H234   H     0.95755   0.24782   0.55256   0.00000  Uiso   1.00
H235   H     0.03887   0.28370   0.52791   0.00000  Uiso   1.00
H236   H     0.07082   0.15409   0.48574   0.00000  Uiso   1.00
N237   N     0.05796   0.22017   0.50560   0.00000  Uiso   1.00
N238   N     0.18409   0.26565   0.48935   0.00000  Uiso   1.00
H239   H     0.28209   0.23071   0.44536   0.00000  Uiso   1.00
H240   H     0.19909   0.20006   0.46952   0.00000  Uiso   1.00
H241   H     0.17532   0.33386   0.50568   0.00000  Uiso   1.00
H242   H     0.25779   0.36687   0.48565   0.00000  Uiso   1.00
C243   C     0.96817   0.17887   0.53326   0.00000  Uiso   1.00
C244   C     0.98102   0.22677   0.53602   0.00000  Uiso   1.00
C245   C     0.02702   0.24703   0.52239   0.00000  Uiso   1.00
C246   C     0.04483   0.17414   0.49859   0.00000  Uiso   1.00
C247   C     0.99967   0.15257   0.51182   0.00000  Uiso   1.00
Ni248  Ni    0.00453   0.87048   0.73248   0.00000  Uiso   1.00
C249   C     0.94740  -0.00782   0.69183   0.00000  Uiso   1.00
C250   C     0.92749   0.97069   0.73039   0.00000  Uiso   1.00
C251   C     0.94763   0.93599   0.74528   0.00000  Uiso   1.00
C252   C     0.00742   0.94606   0.68702   0.00000  Uiso   1.00
C253   C     0.98887   0.98082   0.67126   0.00000  Uiso   1.00
H254   H     0.01161   0.73638   0.81425   0.00000  Uiso   1.00
H255   H     0.10137   0.75455   0.69409   0.00000  Uiso   1.00
H256   H     0.06928   0.82326   0.68243   0.00000  Uiso   1.00
H257   H     0.98111   0.80558   0.80024   0.00000  Uiso   1.00
N258   N     0.02367   0.81713   0.74066   0.00000  Uiso   1.00
N259   N     0.98574   0.92350   0.72230   0.00000  Uiso   1.00
H260   H     0.89621   0.97951   0.74801   0.00000  Uiso   1.00
H261   H     0.93185   0.91765   0.77385   0.00000  Uiso   1.00
H262   H     0.03773   0.93518   0.66962   0.00000  Uiso   1.00
H263   H     0.00570  -0.00283   0.64197   0.00000  Uiso   1.00
C264   C     0.05714   0.73954   0.75380   0.00000  Uiso   1.00
C265   C     0.07323   0.76393   0.71641   0.00000  Uiso   1.00
C266   C     0.05578   0.80302   0.71032   0.00000  Uiso   1.00
C267   C     0.00623   0.79304   0.77649   0.00000  Uiso   1.00
C268   C     0.02271   0.75358   0.78381   0.00000  Uiso   1.00
Ni269  Ni    0.99345   0.37000   0.75363   0.00000  Uiso   1.00
C270   C     0.05224   0.52134   0.79107   0.00000  Uiso   1.00
C271   C     0.07977   0.49499   0.76390   0.00000  Uiso   1.00
C272   C     0.06010   0.45006   0.74898   0.00000  Uiso   1.00
C273   C     0.98539   0.45899   0.78156   0.00000  Uiso   1.00
C274   C     0.00391   0.50395   0.79774   0.00000  Uiso   1.00
H275   H     1.00158   0.21283   0.69414   0.00000  Uiso   1.00
H276   H     0.86865   0.23408   0.75754   0.00000  Uiso   1.00
H277   H     0.90565   0.31424   0.77853   0.00000  Uiso   1.00
H278   H     0.03596   0.29357   0.71650   0.00000  Uiso   1.00
N279   N     0.97205   0.30761   0.74785   0.00000  Uiso   1.00
N280   N     0.01425   0.43242   0.75997   0.00000  Uiso   1.00
H281   H     0.11761   0.50621   0.76005   0.00000  Uiso   1.00
H282   H     0.08248   0.42795   0.73233   0.00000  Uiso   1.00
H283   H     0.94899   0.44383   0.78990   0.00000  Uiso   1.00
H284   H     0.98186   0.52260   0.81971   0.00000  Uiso   1.00
C285   C     0.93256   0.21708   0.72422   0.00000  Uiso   1.00
C286   C     0.90604   0.24563   0.75002   0.00000  Uiso   1.00
C287   C     0.92666   0.29116   0.76144   0.00000  Uiso   1.00
C288   C     0.99981   0.27955   0.72678   0.00000  Uiso   1.00
C289   C     0.98060   0.23357   0.71490   0.00000  Uiso   1.00
Ni290  Ni    0.89492   0.72342   0.97181   0.00000  Uiso   1.00
C291   C     0.76093   0.77466   0.02411   0.00000  Uiso   1.00
C292   C     0.75713   0.72808   0.01012   0.00000  Uiso   1.00
C293   C     0.79749   0.71256   0.99172   0.00000  Uiso   1.00
C294   C     0.84242   0.78835  -0.00260   0.00000  Uiso   1.00
C295   C     0.80344   0.80512   0.01573   0.00000  Uiso   1.00
H296   H    -0.01061   0.60786   0.92314   0.00000  Uiso   1.00
H297   H     0.06632   0.74764   0.93457   0.00000  Uiso   1.00
H298   H     0.99179   0.77232   0.96228   0.00000  Uiso   1.00
H299   H     0.91683   0.63538   0.94950   0.00000  Uiso   1.00
N300   N     0.95101   0.70487   0.95658   0.00000  Uiso   1.00
N301   N     0.83928   0.74275   0.98730   0.00000  Uiso   1.00
H302   H     0.72468   0.70377   0.01633   0.00000  Uiso   1.00
H303   H     0.79601   0.67632   0.98316   0.00000  Uiso   1.00
H304   H     0.87613   0.81133  -0.00639   0.00000  Uiso   1.00
H305   H     0.80726   0.84134   0.02594   0.00000  Uiso   1.00
C306   C     0.03336   0.67568   0.92693   0.00000  Uiso   1.00
C307   C     0.03401   0.72242   0.93810   0.00000  Uiso   1.00
C308   C     0.99197   0.73636   0.95357   0.00000  Uiso   1.00
C309   C     0.94995   0.65946   0.94694   0.00000  Uiso   1.00
C310   C    -0.00896   0.64402   0.93233   0.00000  Uiso   1.00
Ni311  Ni    0.51177   0.65117   0.27039   0.00000  Uiso   1.00
C312   C     0.56274   0.78982   0.20713   0.00000  Uiso   1.00
C313   C     0.59482   0.76219   0.21523   0.00000  Uiso   1.00
C314   C     0.57890   0.72125   0.23582   0.00000  Uiso   1.00
C315   C     0.50045   0.73401   0.24033   0.00000  Uiso   1.00
C316   C     0.51502   0.77560   0.22020   0.00000  Uiso   1.00
H317   H     0.52824   0.50186   0.32336   0.00000  Uiso   1.00
H318   H     0.38705   0.52871   0.32257   0.00000  Uiso   1.00
H319   H     0.41957   0.60353   0.29447   0.00000  Uiso   1.00
H320   H     0.55831   0.57850   0.29419   0.00000  Uiso   1.00
N321   N     0.49039   0.59458   0.29296   0.00000  Uiso   1.00
N322   N     0.53236   0.70771   0.24744   0.00000  Uiso   1.00
H323   H     0.63155   0.77136   0.20392   0.00000  Uiso   1.00
H324   H     0.60344   0.69941   0.24106   0.00000  Uiso   1.00
H325   H     0.46341   0.72183   0.24876   0.00000  Uiso   1.00
H326   H     0.48893   0.79479   0.21226   0.00000  Uiso   1.00
C327   C     0.45513   0.50866   0.32438   0.00000  Uiso   1.00
C328   C     0.42488   0.53827   0.31626   0.00000  Uiso   1.00
C329   C     0.44319   0.58106   0.30068   0.00000  Uiso   1.00
C330   C     0.52088   0.56697   0.30085   0.00000  Uiso   1.00
C331   C     0.50388   0.52359   0.31719   0.00000  Uiso   1.00
loop_
_geom_bond_atom_site_label_1
_geom_bond_atom_site_label_2
_geom_bond_distance
_geom_bond_site_symmetry_2
_ccdc_geom_bond_type
Gd0    O3      2.307   .     S
Gd0    O4      2.199   .     S
Gd0    O6      2.170   .     S
Gd0    O7      2.225   .     S
Gd0    O8      2.245   .     S
Gd0    O11     2.265   .     S
Gd1    O2      2.214   .     S
Gd1    O5      2.295   .     S
Gd1    O10     2.223   .     S
Gd1    O13     2.234   .     S
Gd1    O14     2.233   .     S
Gd1    O15     2.189   .     S
O2     C16     1.267   .     A
O3     C16     1.296   .     A
O4     C12     1.266   .     A
O5     C12     1.271   .     A
O6     C9      1.271   .     A
O7     C9      1.280   .     A
O8     C19     1.263   .     A
C9     C264    1.444   .     S
O10    C19     1.261   .     A
O11    C18     1.288   .     A
C12    C201    1.485   .     S
O13    C18     1.285   .     A
O14    C17     1.270   .     A
O15    C17     1.263   .     A
C16    C270    1.459   .     S
C17    C207    1.456   .     S
C18    C306    1.466   .     S
C19    C96     1.480   .     S
Gd20   O23     2.293   .     S
Gd20   O24     2.232   .     S
Gd20   O26     2.165   .     S
Gd20   O27     2.225   .     S
Gd20   O28     2.225   .     S
Gd20   O31     2.247   .     S
Gd21   O22     2.209   .     S
Gd21   O25     2.307   .     S
Gd21   O30     2.213   .     S
Gd21   O33     2.259   .     S
Gd21   O34     2.239   .     S
Gd21   O35     2.213   .     S
O22    C36     1.259   .     A
O23    C36     1.290   .     A
O24    C32     1.271   .     A
O25    C32     1.288   .     A
O26    C29     1.280   .     A
O27    C29     1.291   .     A
O28    C39     1.262   .     A
C29    C291    1.465   .     S
O30    C39     1.268   .     A
O31    C38     1.279   .     A
C32    C312    1.474   .     S
O33    C38     1.282   .     A
O34    C37     1.277   .     A
O35    C37     1.275   .     A
C36    C81     1.465   .     S
C37    C117    1.471   .     S
C38    C159    1.476   .     S
C39    C180    1.499   .     S
Gd40   O43     2.263   .     S
Gd40   O44     2.176   .     S
Gd40   O47     2.234   .     S
Gd40   O48     2.274   .     S
Gd40   O51     2.222   .     S
Gd40   O46     2.282   1_545 S
Gd41   O42     2.185   .     S
Gd41   O45     2.258   .     S
Gd41   O50     2.213   .     S
Gd41   O53     2.268   .     S
Gd41   O54     2.281   .     S
Gd41   O55     2.290   .     S
O42    C56     1.260   .     A
O43    C56     1.279   .     A
O44    C52     1.259   .     A
O45    C52     1.275   .     A
O46    Gd40    2.282   1_565 S
O46    C49     1.265   1_565 A
O47    C49     1.253   .     A
O48    C59     1.280   .     A
C49    C249    1.470   .     S
C49    O46     1.265   1_545 A
O50    C59     1.272   .     A
O51    C58     1.273   .     A
C52    C243    1.466   .     S
O53    C58     1.285   .     A
O54    C57     1.251   .     A
O55    C57     1.260   .     A
C56    C285    1.471   .     S
C57    C123    1.500   .     S
C58    C144    1.476   .     S
C59    C165    1.496   .     S
Gd60   O63     2.258   .     S
Gd60   O64     2.167   .     S
Gd60   O66     2.241   .     S
Gd60   O67     2.267   .     S
Gd60   O68     2.239   .     S
Gd60   O71     2.229   .     S
Gd61   O62     2.214   .     S
Gd61   O65     2.264   .     S
Gd61   O70     2.173   .     S
Gd61   O73     2.263   .     S
Gd61   O74     2.295   .     S
Gd61   O75     2.248   .     S
O62    C76     1.282   .     A
O63    C76     1.283   .     A
O64    C72     1.260   .     A
O65    C72     1.280   .     A
O66    C69     1.266   .     A
O67    C69     1.264   .     A
O68    C79     1.274   .     A
C69    C222    1.457   .     S
O70    C79     1.262   .     A
O71    C78     1.272   .     A
C72    C228    1.455   .     S
O73    C78     1.270   .     A
O74    C77     1.271   .     A
O75    C77     1.258   .     A
C76    C186    1.491   .     S
C77    C138    1.487   .     S
C78    C327    1.479   .     S
C79    C102    1.449   .     S
Ni80   N90     1.843   .     S
Ni80   N91     1.842   1_556 S
C81    C82     1.403   .     A
C81    C85     1.400   .     A
C82    C83     1.399   .     A
C82    H92     1.083   .     S
C83    N91     1.359   .     A
C83    H93     1.081   .     S
C84    H94     1.082   .     S
C84    C85     1.398   1_556 A
C84    N91     1.360   1_556 A
C85    C84     1.398   1_554 A
C85    H95     1.084   1_554 S
H86    C100    1.076   .     S
H87    C97     1.081   .     S
H88    C98     1.082   .     S
H89    C99     1.082   .     S
N90    C98     1.358   .     A
N90    C99     1.362   .     A
N91    Ni80    1.842   1_554 S
N91    C84     1.360   1_554 A
H95    C85     1.084   1_556 S
C96    C97     1.403   .     A
C96    C100    1.403   .     A
C97    C98     1.395   .     A
C99    C100    1.401   .     A
Ni101  N111    1.819   .     S
Ni101  N112    1.817   .     S
C102   C103    1.408   .     A
C102   C106    1.397   .     A
C103   C104    1.394   .     A
C103   H113    1.085   .     S
C104   N112    1.355   .     A
C104   H114    1.081   .     S
C105   C106    1.388   .     A
C105   N112    1.356   .     A
C105   H115    1.082   .     S
C106   H116    1.086   .     S
H107   C121    1.083   .     S
H108   C118    1.083   .     S
H109   C119    1.083   .     S
H110   C120    1.083   .     S
N111   C119    1.352   .     A
N111   C120    1.359   .     A
C117   C121    1.407   .     A
C117   C118    1.403   1_565 A
C118   C119    1.385   .     A
C118   C117    1.403   1_545 A
C120   C121    1.401   1_545 A
C121   C120    1.401   1_565 A
Ni122  N132    1.877   .     S
Ni122  N133    1.878   .     S
C123   C124    1.410   .     A
C123   C127    1.401   .     A
C124   C125    1.412   .     A
C124   H134    1.084   .     S
C125   N133    1.367   .     A
C125   H135    1.085   .     S
C126   C127    1.406   .     A
C126   N133    1.364   .     A
C126   H136    1.081   .     S
C127   H137    1.080   .     S
H128   C142    1.082   .     S
H129   C139    1.086   .     S
H130   C140    1.083   .     S
H131   C141    1.079   .     S
N132   C140    1.369   .     A
N132   C141    1.362   .     A
C138   C139    1.410   .     A
C138   C142    1.395   .     A
C139   C140    1.414   .     A
C141   C142    1.400   .     A
Ni143  N153    1.854   .     S
Ni143  N154    1.855   1_565 S
C144   C145    1.402   .     A
C144   C148    1.403   .     A
C145   C146    1.397   .     A
C145   H155    1.084   .     S
C146   N154    1.359   .     A
C146   H156    1.083   .     S
C147   C148    1.408   .     A
C147   N154    1.365   .     A
C147   H157    1.083   1_545 S
C148   H158    1.083   1_545 S
H149   C163    1.083   .     S
H150   C160    1.083   .     S
H151   C161    1.082   .     S
H152   C162    1.082   1_545 S
N153   C161    1.359   .     A
N153   C162    1.365   .     A
N154   Ni143   1.855   1_545 S
H157   C147    1.083   1_565 S
H158   C148    1.083   1_565 S
C159   C163    1.403   .     A
C159   C160    1.401   1_554 A
C160   C161    1.396   .     A
C160   C159    1.401   1_556 A
C162   H152    1.082   1_565 S
C162   C163    1.407   1_556 A
C163   C162    1.407   1_554 A
Ni164  N174    1.845   .     S
Ni164  N175    1.848   1_565 S
C165   C169    1.407   .     A
C165   C166    1.411   1_545 A
C166   C167    1.415   .     A
C166   H176    1.083   .     S
C166   C165    1.411   1_565 A
C167   H177    1.084   .     S
C167   N175    1.368   1_565 A
C168   C169    1.385   .     A
C168   N175    1.349   .     A
C168   H178    1.082   .     S
C169   H179    1.076   .     S
H170   C184    1.080   .     S
H171   C181    1.081   .     S
H172   C182    1.083   1_545 S
H173   C183    1.080   .     S
N174   C182    1.368   .     A
N174   C183    1.349   .     A
N175   Ni164   1.848   1_545 S
N175   C167    1.368   1_545 A
C180   C181    1.416   .     A
C180   C184    1.406   .     A
C181   C182    1.415   .     A
C182   H172    1.083   1_565 S
C183   C184    1.385   .     A
Ni185  N195    1.853   .     S
Ni185  N196    1.852   .     S
C186   C187    1.412   .     A
C186   C190    1.405   .     A
C187   C188    1.414   .     A
C187   H197    1.085   .     S
C188   N196    1.367   .     A
C188   H198    1.083   .     S
C189   C190    1.388   .     A
C189   N196    1.352   .     A
C189   H199    1.081   .     S
C190   H200    1.082   .     S
H191   C205    1.083   .     S
H192   C202    1.083   .     S
H193   C203    1.083   .     S
H194   C204    1.081   .     S
N195   C203    1.365   .     A
N195   C204    1.356   .     A
C201   C202    1.403   .     A
C201   C205    1.407   .     A
C202   C203    1.407   .     A
C204   C205    1.397   .     A
Ni206  N216    1.822   .     S
Ni206  N217    1.821   .     S
C207   C211    1.400   .     A
C207   C208    1.401   1_556 A
C208   C209    1.382   .     A
C208   H218    1.084   .     S
C208   C207    1.401   1_554 A
C209   N217    1.352   .     A
C209   H219    1.081   .     S
C210   N217    1.362   .     A
C210   H220    1.082   .     S
C210   C211    1.397   1_554 A
C211   H221    1.084   .     S
C211   C210    1.397   1_556 A
H212   C226    1.083   .     S
H213   C223    1.083   .     S
H214   C224    1.081   .     S
H215   C225    1.082   .     S
N216   C224    1.354   .     A
N216   C225    1.361   .     A
C222   C223    1.400   .     A
C222   C226    1.399   .     A
C223   C224    1.388   .     A
C225   C226    1.396   .     A
Ni227  N237    1.825   .     S
Ni227  N238    1.826   .     S
C228   C229    1.400   .     A
C228   C232    1.404   .     A
C229   C230    1.399   .     A
C229   H239    1.083   .     S
C230   N238    1.361   .     A
C230   H240    1.082   .     S
C231   C232    1.387   .     A
C231   N238    1.354   .     A
C231   H241    1.082   .     S
C232   H242    1.085   .     S
H233   C247    1.084   .     S
H234   C244    1.083   .     S
H235   C245    1.082   .     S
H236   C246    1.083   .     S
N237   C245    1.361   .     A
N237   C246    1.353   .     A
C243   C244    1.401   .     A
C243   C247    1.407   .     A
C244   C245    1.399   1_655 A
C245   C244    1.399   1_455 A
C246   C247    1.387   1_455 A
C247   C246    1.387   1_655 A
Ni248  N258    1.826   .     S
Ni248  N259    1.827   1_455 S
C249   C250    1.405   1_545 A
C249   C253    1.401   1_545 A
C250   C251    1.401   .     A
C250   H260    1.084   .     S
C250   C249    1.405   1_565 A
C251   N259    1.360   .     A
C251   H261    1.083   .     S
C252   H262    1.082   .     S
C252   C253    1.387   1_455 A
C252   N259    1.355   1_455 A
C253   C249    1.401   1_565 A
C253   C252    1.387   1_655 A
C253   H263    1.082   1_665 S
H254   C268    1.085   .     S
H255   C265    1.084   .     S
H256   C266    1.081   .     S
H257   C267    1.082   1_655 S
N258   C266    1.359   .     A
N258   C267    1.358   .     A
N259   Ni248   1.827   1_655 S
N259   C252    1.355   1_655 A
H263   C253    1.082   1_445 S
C264   C265    1.394   .     A
C264   C268    1.400   .     A
C265   C266    1.389   .     A
C267   C268    1.393   .     A
C267   H257    1.082   1_455 S
Ni269  N279    1.839   .     S
Ni269  N280    1.838   1_655 S
C270   C271    1.404   .     A
C270   C274    1.400   .     A
C271   C272    1.397   .     A
C271   H281    1.082   .     S
C272   N280    1.358   .     A
C272   H282    1.084   .     S
C273   H283    1.083   .     S
C273   C274    1.401   1_655 A
C273   N280    1.360   1_655 A
C274   C273    1.401   1_455 A
C274   H284    1.083   1_455 S
H275   C289    1.083   .     S
H276   C286    1.084   .     S
H277   C287    1.082   .     S
H278   C288    1.083   1_455 S
N279   C287    1.357   .     A
N279   C288    1.361   .     A
N280   Ni269   1.838   1_455 S
N280   C273    1.360   1_455 A
H284   C274    1.083   1_655 S
C285   C286    1.408   .     A
C285   C289    1.399   .     A
C286   C287    1.395   .     A
C288   C289    1.400   .     A
C288   H278    1.083   1_655 S
Ni290  N300    1.834   .     S
Ni290  N301    1.834   .     S
C291   C292    1.402   .     A
C291   C295    1.400   .     A
C292   H302    1.084   .     S
C292   C293    1.403   1_554 A
C293   N301    1.364   .     A
C293   H303    1.083   .     S
C293   C292    1.403   1_556 A
C294   C295    1.386   .     A
C294   H304    1.082   .     S
C294   N301    1.355   1_554 A
C295   H305    1.084   .     S
H296   C310    1.083   .     S
H297   C307    1.084   .     S
H298   C308    1.083   .     S
H299   C309    1.081   .     S
N300   C308    1.363   .     A
N300   C309    1.356   .     A
N301   C294    1.355   1_556 A
C306   C307    1.403   .     A
C306   C310    1.401   .     A
C307   C308    1.401   1_455 A
C308   C307    1.401   1_655 A
C309   C310    1.390   1_655 A
C310   C309    1.390   1_455 A
Ni311  N321    1.849   .     S
Ni311  N322    1.850   .     S
C312   C313    1.403   .     A
C312   C316    1.403   .     A
C313   C314    1.398   .     A
C313   H323    1.083   .     S
C314   N322    1.359   .     A
C314   H324    1.081   .     S
C315   C316    1.404   .     A
C315   N322    1.362   .     A
C315   H325    1.082   .     S
C316   H326    1.083   .     S
H317   C331    1.082   .     S
H318   C328    1.084   .     S
H319   C329    1.082   .     S
H320   C330    1.081   .     S
N321   C329    1.357   .     A
N321   C330    1.365   .     A
C327   C328    1.406   .     A
C327   C331    1.402   .     A
C328   C329    1.390   .     A
C330   C331    1.408   .     A
