data_lcy+N205+E35
_audit_creation_date              2025-01-21
_audit_creation_method            'Materials Studio'
_symmetry_space_group_name_H-M    'P1'
_symmetry_Int_Tables_number       1
_symmetry_cell_setting            triclinic
loop_
_symmetry_equiv_pos_as_xyz
  x,y,z
_cell_length_a                    27.4870
_cell_length_b                    27.3362
_cell_length_c                    27.0925
_cell_angle_alpha                 115.6858
_cell_angle_beta                  94.5729
_cell_angle_gamma                 94.5843
loop_
_atom_site_label
_atom_site_type_symbol
_atom_site_fract_x
_atom_site_fract_y
_atom_site_fract_z
_atom_site_U_iso_or_equiv
_atom_site_adp_type
_atom_site_occupancy
Y0     Y     0.16474   0.57888   0.89031   0.00000  Uiso   1.00
Y1     Y     0.08254   0.68851   0.84138   0.00000  Uiso   1.00
C2     C     0.00888   0.69502   0.90350   0.00000  Uiso   1.00
C3     C     0.07262   0.56630   0.81448   0.00000  Uiso   1.00
C4     C     0.18335   0.54171   0.96601   0.00000  Uiso   1.00
C5     C     0.20919   0.53814   0.79783   0.00000  Uiso   1.00
C6     C     0.18460   0.69757   0.91223   0.00000  Uiso   1.00
C7     C     0.07173   0.75318   0.78991   0.00000  Uiso   1.00
O8     O     0.05237   0.71774   0.92405   0.00000  Uiso   1.00
O9     O     0.00447   0.66875   0.85184   0.00000  Uiso   1.00
O10    O     0.08760   0.58713   0.86572   0.00000  Uiso   1.00
O11    O     0.07258   0.59704   0.79018   0.00000  Uiso   1.00
O12    O     0.21185   0.57772   0.96146   0.00000  Uiso   1.00
O13    O     0.14479   0.52531   0.93174   0.00000  Uiso   1.00
O14    O     0.16990   0.51537   0.80389   0.00000  Uiso   1.00
O15    O     0.22647   0.58144   0.84049   0.00000  Uiso   1.00
O16    O     0.16377   0.70760   0.87452   0.00000  Uiso   1.00
O17    O     0.16055   0.66865   0.93013   0.00000  Uiso   1.00
O18    O     0.06322   0.70165   0.76532   0.00000  Uiso   1.00
O19    O     0.08622   0.77072   0.84057   0.00000  Uiso   1.00
Y20    Y     0.54725   0.85262   0.19028   0.00000  Uiso   1.00
Y21    Y     0.64467   0.89156   0.07133   0.00000  Uiso   1.00
C22    C     0.70678   0.81510   0.05254   0.00000  Uiso   1.00
C23    C     0.64241   0.92609   0.19813   0.00000  Uiso   1.00
C24    C     0.53544   0.77579   0.22665   0.00000  Uiso   1.00
C25    C     0.49752   0.94003   0.22584   0.00000  Uiso   1.00
C26    C     0.53794   0.83792   0.07088   0.00000  Uiso   1.00
C27    C     0.66660   0.95148   0.01664   0.00000  Uiso   1.00
O28    O     0.71068   0.85935   0.09572   0.00000  Uiso   1.00
O29    O     0.66831   0.80818   0.02037   0.00000  Uiso   1.00
O30    O     0.62473   0.87628   0.18071   0.00000  Uiso   1.00
O31    O     0.65037   0.94475   0.16336   0.00000  Uiso   1.00
O32    O     0.51250   0.77163   0.18233   0.00000  Uiso   1.00
O33    O     0.56386   0.82015   0.25252   0.00000  Uiso   1.00
O34    O     0.53792   0.93808   0.25013   0.00000  Uiso   1.00
O35    O     0.48133   0.89536   0.18409   0.00000  Uiso   1.00
O36    O     0.56261   0.86587   0.05215   0.00000  Uiso   1.00
O37    O     0.56039   0.82144   0.10229   0.00000  Uiso   1.00
O38    O     0.68783   0.96175   0.06365   0.00000  Uiso   1.00
O39    O     0.63356   0.91128   0.99886   0.00000  Uiso   1.00
Y40    Y     0.90869   0.16072   0.55934   0.00000  Uiso   1.00
Y41    Y     0.86731   0.08162   0.68774   0.00000  Uiso   1.00
C42    C     0.93289   0.00949   0.67336   0.00000  Uiso   1.00
C43    C     0.84058   0.06607   0.56284   0.00000  Uiso   1.00
C44    C     1.00080   0.18160   0.54188   0.00000  Uiso   1.00
C45    C     0.83415   0.20418   0.53034   0.00000  Uiso   1.00
C46    C     0.90993   0.18701   0.68584   0.00000  Uiso   1.00
C47    C     0.80997   0.07772   0.76290   0.00000  Uiso   1.00
O48    O     0.94429   0.06063   0.69808   0.00000  Uiso   1.00
O49    O     0.88842  -0.00399   0.65281   0.00000  Uiso   1.00
O50    O     0.88592   0.08265   0.56592   0.00000  Uiso   1.00
O51    O     0.82450   0.06186   0.60408   0.00000  Uiso   1.00
O52    O     0.98263   0.21159   0.58482   0.00000  Uiso   1.00
O53    O     0.97108   0.14049   0.50800   0.00000  Uiso   1.00
O54    O     0.84785   0.15942   0.49803   0.00000  Uiso   1.00
O55    O     0.86090   0.22773   0.57650   0.00000  Uiso   1.00
O56    O     0.89849   0.17089   0.72101   0.00000  Uiso   1.00
O57    O     0.90181   0.15239   0.63621   0.00000  Uiso   1.00
O58    O     0.79535   0.05856   0.71208   0.00000  Uiso   1.00
O59    O     0.85363   0.10069   0.77502   0.00000  Uiso   1.00
Y60    Y     0.41563   0.34195   0.45671   0.00000  Uiso   1.00
Y61    Y     0.36461   0.41276   0.32177   0.00000  Uiso   1.00
C62    C     0.44090   0.48867   0.33727   0.00000  Uiso   1.00
C63    C     0.35915   0.43078   0.44626   0.00000  Uiso   1.00
C64    C     0.50521   0.31695   0.47520   0.00000  Uiso   1.00
C65    C     0.33629   0.29764   0.48118   0.00000  Uiso   1.00
C66    C     0.39371   0.30928   0.32798   0.00000  Uiso   1.00
C67    C     0.30291   0.41520   0.24037   0.00000  Uiso   1.00
O68    O     0.44176   0.43794   0.31006   0.00000  Uiso   1.00
O69    O     0.40325   0.49930   0.36162   0.00000  Uiso   1.00
O70    O     0.40201   0.41594   0.44345   0.00000  Uiso   1.00
O71    O     0.33602   0.43273   0.40437   0.00000  Uiso   1.00
O72    O     0.47306   0.28594   0.43553   0.00000  Uiso   1.00
O73    O     0.49074   0.36181   0.50677   0.00000  Uiso   1.00
O74    O     0.36029   0.34350   0.51423   0.00000  Uiso   1.00
O75    O     0.35468   0.27416   0.43661   0.00000  Uiso   1.00
O76    O     0.37576   0.32352   0.29257   0.00000  Uiso   1.00
O77    O     0.40407   0.34633   0.37669   0.00000  Uiso   1.00
O78    O     0.29478   0.43512   0.29006   0.00000  Uiso   1.00
O79    O     0.34050   0.39094   0.23284   0.00000  Uiso   1.00
C80    C     0.38525   0.78773   0.00922   0.00000  Uiso   1.00
C81    C     0.40983   0.83276   1.00530   0.00000  Uiso   1.00
C82    C     0.45907   0.85066   1.02769   0.00000  Uiso   1.00
C83    C     0.48397   0.82449   0.05476   0.00000  Uiso   1.00
C84    C     0.45737   0.78164   0.06054   0.00000  Uiso   1.00
N85    N     0.40950   0.76436   0.03766   0.00000  Uiso   1.00
C86    C     0.33398   0.76453   0.98262   0.00000  Uiso   1.00
N87    N     0.30624   0.73484   0.00208   0.00000  Uiso   1.00
C88    C     0.25903   0.71240   0.97976   0.00000  Uiso   1.00
C89    C     0.23690   0.71915   0.93487   0.00000  Uiso   1.00
C90    C     0.26513   0.74861   0.91342   0.00000  Uiso   1.00
C91    C     0.31357   0.77103   0.93685   0.00000  Uiso   1.00
H92    H     0.47797   0.88425   1.02271   0.00000  Uiso   1.00
H93    H     0.47517   0.76029   0.08100   0.00000  Uiso   1.00
H94    H     0.23865   0.69006  -0.00228   0.00000  Uiso   1.00
H95    H     0.24976   0.75450   0.87861   0.00000  Uiso   1.00
H96    H     0.39161   0.85397   0.98497   0.00000  Uiso   1.00
H97    H     0.33473   0.79246   0.91859   0.00000  Uiso   1.00
C98    C     0.42415   0.14607   0.28323   0.00000  Uiso   1.00
C99    C     0.37523   0.15536   0.27480   0.00000  Uiso   1.00
C100   C     0.36476   0.20890   0.28942   0.00000  Uiso   1.00
C101   C     0.40281   0.25263   0.31265   0.00000  Uiso   1.00
C102   C     0.45101   0.24152   0.31904   0.00000  Uiso   1.00
N103   N     0.46030   0.18944   0.30501   0.00000  Uiso   1.00
C104   C     0.43836   0.09103   0.26994   0.00000  Uiso   1.00
N105   N     0.48062   0.08771   0.29745   0.00000  Uiso   1.00
C106   C     0.49853   0.03956   0.28571   0.00000  Uiso   1.00
C107   C     0.47415   0.99072   0.24293   0.00000  Uiso   1.00
C108   C     0.43006  -0.00731   0.21432   0.00000  Uiso   1.00
C109   C     0.41189   0.04280   0.22785   0.00000  Uiso   1.00
H110   H     0.32714   0.21632   0.28342   0.00000  Uiso   1.00
H111   H     0.48136   0.27433   0.33523   0.00000  Uiso   1.00
H112   H     0.53274   0.03986   0.30866   0.00000  Uiso   1.00
H113   H     0.41042   0.95589   0.18069   0.00000  Uiso   1.00
H114   H     0.34538   0.12207   0.25819   0.00000  Uiso   1.00
H115   H     0.37877   0.04387   0.20415   0.00000  Uiso   1.00
C116   C     0.69765   0.25501   0.49828   0.00000  Uiso   1.00
C117   C     0.71545   0.21146   0.45566   0.00000  Uiso   1.00
C118   C     0.76097   0.19611   0.46550   0.00000  Uiso   1.00
C119   C     0.78929   0.22454   0.51722   0.00000  Uiso   1.00
C120   C     0.77153   0.26954   0.55782   0.00000  Uiso   1.00
N121   N     0.72663   0.28323   0.54761   0.00000  Uiso   1.00
C122   C     0.64785   0.27019   0.49152   0.00000  Uiso   1.00
N123   N     0.63748   0.32096   0.52599   0.00000  Uiso   1.00
C124   C     0.59223   0.33709   0.52235   0.00000  Uiso   1.00
C125   C     0.55433   0.30102   0.48221   0.00000  Uiso   1.00
C126   C     0.56403   0.24837   0.44699   0.00000  Uiso   1.00
C127   C     0.61035   0.23267   0.45174   0.00000  Uiso   1.00
H128   H     0.77355   0.16133   0.43302   0.00000  Uiso   1.00
H129   H     0.79246   0.29259   0.59826   0.00000  Uiso   1.00
H130   H     0.58605   0.37800   0.55041   0.00000  Uiso   1.00
H131   H     0.53566   0.21903   0.41575   0.00000  Uiso   1.00
H132   H     0.69468   0.18905   0.41512   0.00000  Uiso   1.00
H133   H     0.61595   0.19116   0.42506   0.00000  Uiso   1.00
C134   C     0.73139   1.04475   0.87670   0.00000  Uiso   1.00
C135   C     0.70961   0.02603   0.82178   0.00000  Uiso   1.00
C136   C     0.73427   0.03921   0.78529   0.00000  Uiso   1.00
C137   C     0.78056   0.07065   0.80301   0.00000  Uiso   1.00
C138   C     0.80032   1.09037   0.85848   0.00000  Uiso   1.00
N139   N     0.77584   1.07663   0.89322   0.00000  Uiso   1.00
C140   C     0.71049   1.02628   0.91552   0.00000  Uiso   1.00
N141   N     0.74024   1.03291   0.96130   0.00000  Uiso   1.00
C142   C     0.72599   1.01219   0.99606   0.00000  Uiso   1.00
C143   C     0.67979   0.98130   0.98460   0.00000  Uiso   1.00
C144   C     0.64766   0.97583   0.93918   0.00000  Uiso   1.00
C145   C     0.66252   0.99885   0.90501   0.00000  Uiso   1.00
H146   H     0.71805   0.02284   0.74262   0.00000  Uiso   1.00
H147   H     0.83605   1.11477   0.87372   0.00000  Uiso   1.00
H148   H     0.75166   1.01755   1.03099   0.00000  Uiso   1.00
H149   H     0.61132   0.95296   0.92958   0.00000  Uiso   1.00
H150   H     0.67521  -0.00069   0.80576   0.00000  Uiso   1.00
H151   H     0.63672  -0.00594   0.87052   0.00000  Uiso   1.00
C152   C     0.74175   1.02884   0.41781   0.00000  Uiso   1.00
C153   C     0.72272   1.03877   0.46737   0.00000  Uiso   1.00
C154   C     0.75496   0.05202   0.51514   0.00000  Uiso   1.00
C155   C     0.80599   0.05527   0.51355   0.00000  Uiso   1.00
C156   C     0.82341   0.04521   0.46315   0.00000  Uiso   1.00
N157   N     0.79134   1.03277   0.41730   0.00000  Uiso   1.00
C158   C     0.70940   1.00958   0.36513   0.00000  Uiso   1.00
N159   N     0.72254   1.02565   0.32647   0.00000  Uiso   1.00
C160   C     0.69819   1.00330   0.27434   0.00000  Uiso   1.00
C161   C     0.65987   0.95998   0.25763   0.00000  Uiso   1.00
C162   C     0.64508   0.94399   0.29741   0.00000  Uiso   1.00
C163   C     0.66909   0.96926   0.35132   0.00000  Uiso   1.00
H164   H     0.73998   0.05921   0.55313   0.00000  Uiso   1.00
H165   H     0.86248   0.04674   0.46005   0.00000  Uiso   1.00
H166   H     0.71123   1.01663   0.24493   0.00000  Uiso   1.00
H167   H     0.61651   0.91031   0.28635   0.00000  Uiso   1.00
H168   H     0.68342   1.03587   0.46899   0.00000  Uiso   1.00
H169   H     0.65849   0.95461   0.38069   0.00000  Uiso   1.00
C170   C     0.29138   0.46678   0.59267   0.00000  Uiso   1.00
C171   C     0.26180   0.44494   0.54127   0.00000  Uiso   1.00
C172   C     0.28376   0.43290   0.49323   0.00000  Uiso   1.00
C173   C     0.33505   0.44181   0.49618   0.00000  Uiso   1.00
C174   C     0.36330   0.46362   0.54824   0.00000  Uiso   1.00
N175   N     0.34108   0.47576   0.59451   0.00000  Uiso   1.00
C176   C     0.26995   0.48253   0.64512   0.00000  Uiso   1.00
N177   N     0.29423   0.52448   0.69209   0.00000  Uiso   1.00
C178   C     0.27616   0.54229   0.74146   0.00000  Uiso   1.00
C179   C     0.23110   0.51724   0.74555   0.00000  Uiso   1.00
C180   C     0.20606   0.47301   0.69803   0.00000  Uiso   1.00
C181   C     0.22529   0.45555   0.64782   0.00000  Uiso   1.00
H182   H     0.26073   0.41658   0.45384   0.00000  Uiso   1.00
H183   H     0.40298   0.47170   0.55219   0.00000  Uiso   1.00
H184   H     0.29671   0.57635   0.77723   0.00000  Uiso   1.00
H185   H     0.17128   0.45239   0.69949   0.00000  Uiso   1.00
H186   H     0.22211   0.43848   0.53819   0.00000  Uiso   1.00
H187   H     0.20553   0.42114   0.61179   0.00000  Uiso   1.00
C188   C     0.21933   0.47827   0.08075   0.00000  Uiso   1.00
C189   C     0.16968   0.47480   0.06144   0.00000  Uiso   1.00
C190   C     0.15752   0.49532   0.02351   0.00000  Uiso   1.00
C191   C     0.19472   0.52033   1.00632   0.00000  Uiso   1.00
C192   C     0.24370   0.52352   0.02722   0.00000  Uiso   1.00
N193   N     0.25467   0.50211   0.06288   0.00000  Uiso   1.00
C194   C     0.23503   0.45581   0.11902   0.00000  Uiso   1.00
N195   N     0.27703   0.43183   0.11214   0.00000  Uiso   1.00
C196   C     0.29694   0.41492   0.14855   0.00000  Uiso   1.00
C197   C     0.27549   0.42396   0.19655   0.00000  Uiso   1.00
C198   C     0.23165   0.44775   0.20421   0.00000  Uiso   1.00
C199   C     0.21090   0.46320   0.16505   0.00000  Uiso   1.00
H200   H     0.11927   0.49190   0.00787   0.00000  Uiso   1.00
H201   H     0.27336   0.54195   0.01434   0.00000  Uiso   1.00
H202   H     0.33112   0.39730   0.14142   0.00000  Uiso   1.00
H203   H     0.21446   0.45600   0.24114   0.00000  Uiso   1.00
H204   H     0.14090   0.45539   0.07448   0.00000  Uiso   1.00
H205   H     0.17802   0.48333   0.17212   0.00000  Uiso   1.00
C206   C     0.19733   0.23616   0.50591   0.00000  Uiso   1.00
C207   C     0.22178   0.20231   0.46234   0.00000  Uiso   1.00
C208   C     0.26777   0.22201   0.45523   0.00000  Uiso   1.00
C209   C     0.29003   0.27483   0.49178   0.00000  Uiso   1.00
C210   C     0.26562   0.30651   0.53615   0.00000  Uiso   1.00
N211   N     0.22042   0.28681   0.54176   0.00000  Uiso   1.00
C212   C     0.14698   0.21921   0.51389   0.00000  Uiso   1.00
N213   N     0.12969   0.24961   0.56235   0.00000  Uiso   1.00
C214   C     0.08352   0.23815   0.57242   0.00000  Uiso   1.00
C215   C     0.05144   0.19376   0.53215   0.00000  Uiso   1.00
C216   C     0.06821   0.16184   0.48194   0.00000  Uiso   1.00
C217   C     0.11569   0.17449   0.47246   0.00000  Uiso   1.00
H218   H     0.28567   0.19612   0.42069   0.00000  Uiso   1.00
H219   H     0.28171   0.34741   0.56539   0.00000  Uiso   1.00
H220   H     0.07189   0.26392   0.61172   0.00000  Uiso   1.00
H221   H     0.04436   0.12759   0.44964   0.00000  Uiso   1.00
H222   H     0.20606   0.16116   0.43373   0.00000  Uiso   1.00
H223   H     0.12671   0.14998   0.43258   0.00000  Uiso   1.00
C224   C     1.01785   0.89771   0.69864   0.00000  Uiso   1.00
C225   C     1.03919   0.95206   0.71648   0.00000  Uiso   1.00
C226   C     1.01291   0.98813   0.70462   0.00000  Uiso   1.00
C227   C     0.96592   0.96992   0.67432   0.00000  Uiso   1.00
C228   C     0.94797   0.91419   0.65282   0.00000  Uiso   1.00
N229   N     0.97364   0.88017   0.66608   0.00000  Uiso   1.00
C230   C     1.03889   0.86078   0.71919   0.00000  Uiso   1.00
N231   N     1.02472   0.80580   0.69084   0.00000  Uiso   1.00
C232   C     0.03713   0.77014   0.71103   0.00000  Uiso   1.00
C233   C     1.06388   0.78966   0.76362   0.00000  Uiso   1.00
C234   C     1.07982   0.84586   0.79299   0.00000  Uiso   1.00
C235   C     1.06759   0.88149   0.77100   0.00000  Uiso   1.00
H236   H     1.02814   0.03081   0.72174   0.00000  Uiso   1.00
H237   H     0.91204   0.89846   0.62876   0.00000  Uiso   1.00
H238   H     0.02410   0.72700   0.68717   0.00000  Uiso   1.00
H239   H     1.10036   0.86251   0.83385   0.00000  Uiso   1.00
H240   H     1.07488   0.96730   0.74108   0.00000  Uiso   1.00
H241   H     1.07818   0.92492   0.79602   0.00000  Uiso   1.00
C242   C     0.00535   0.40100   0.74306   0.00000  Uiso   1.00
C243   C     0.99289   0.43447   0.71786   0.00000  Uiso   1.00
C244   C     1.01722   0.48777   0.73882   0.00000  Uiso   1.00
C245   C     0.05318   0.50762   0.78505   0.00000  Uiso   1.00
C246   C     0.06543   0.47202   0.80752   0.00000  Uiso   1.00
N247   N     0.04175   0.42044   0.78625   0.00000  Uiso   1.00
C248   C     0.97943   0.34581   0.72578   0.00000  Uiso   1.00
N249   N     0.00468   0.30789   0.73270   0.00000  Uiso   1.00
C250   C    -0.01720   0.25712   0.72088   0.00000  Uiso   1.00
C251   C     0.93259   0.24267   0.70178   0.00000  Uiso   1.00
C252   C     0.90539   0.28116   0.69557   0.00000  Uiso   1.00
C253   C     0.92877   0.33287   0.70713   0.00000  Uiso   1.00
H254   H     1.00631   0.51418   0.72066   0.00000  Uiso   1.00
H255   H     0.09282   0.48547   0.84291   0.00000  Uiso   1.00
H256   H     0.00466   0.22795   0.72592   0.00000  Uiso   1.00
H257   H     0.86618   0.27124   0.68221   0.00000  Uiso   1.00
H258   H     0.96447   0.41989   0.68290   0.00000  Uiso   1.00
H259   H     0.90723   0.36274   0.70317   0.00000  Uiso   1.00
C260   C     0.83339   0.73561   0.00714   0.00000  Uiso   1.00
C261   C     0.83004   0.76776   0.06332   0.00000  Uiso   1.00
C262   C     0.78660   0.79003   0.07896   0.00000  Uiso   1.00
C263   C     0.74635   0.77972   0.03904   0.00000  Uiso   1.00
C264   C     0.74934   0.74279   0.98429   0.00000  Uiso   1.00
N265   N     0.79247   0.72282   0.96978   0.00000  Uiso   1.00
C266   C     0.88078   0.71989   0.98599   0.00000  Uiso   1.00
N267   N     0.87932   0.68228   0.93252   0.00000  Uiso   1.00
C268   C     0.92033   0.67121   0.90688   0.00000  Uiso   1.00
C269   C     0.96641   0.70011   0.93473   0.00000  Uiso   1.00
C270   C     0.96950   0.73736  -0.00949   0.00000  Uiso   1.00
C271   C     0.92680   0.74748   0.01635   0.00000  Uiso   1.00
H272   H     0.78542   0.81768   0.12189   0.00000  Uiso   1.00
H273   H     0.71889   0.73332   0.95234   0.00000  Uiso   1.00
H274   H     0.91645   0.64162   0.86389   0.00000  Uiso   1.00
H275   H     0.00443   0.76045   0.01330   0.00000  Uiso   1.00
H276   H     0.86091   0.77762   0.09479   0.00000  Uiso   1.00
H277   H     0.93001   0.77878   0.05844   0.00000  Uiso   1.00
C278   C     0.52150   0.65208   0.28250   0.00000  Uiso   1.00
C279   C     0.51067   0.63780   0.22602   0.00000  Uiso   1.00
C280   C     0.51467   0.67836   0.20789   0.00000  Uiso   1.00
C281   C     0.53032   0.73289   0.24570   0.00000  Uiso   1.00
C282   C     0.54139   0.74553   0.30171   0.00000  Uiso   1.00
N283   N     0.53595   0.70548   0.31869   0.00000  Uiso   1.00
C284   C     0.51208   0.61098   0.30344   0.00000  Uiso   1.00
N285   N     0.48942   0.62472   0.34969   0.00000  Uiso   1.00
C286   C     0.47159   0.58665   0.36560   0.00000  Uiso   1.00
C287   C     0.47492   0.53098   0.33325   0.00000  Uiso   1.00
C288   C     0.50203   0.51662   0.28834   0.00000  Uiso   1.00
C289   C     0.52055   0.55651   0.27321   0.00000  Uiso   1.00
H290   H     0.50573   0.66710   0.16435   0.00000  Uiso   1.00
H291   H     0.55318   0.78736   0.33206   0.00000  Uiso   1.00
H292   H     0.45132   0.59936   0.40085   0.00000  Uiso   1.00
H293   H     0.50530   0.47411   0.26218   0.00000  Uiso   1.00
H294   H     0.49750   0.59603   0.19642   0.00000  Uiso   1.00
H295   H     0.53904   0.54449   0.23664   0.00000  Uiso   1.00
loop_
_geom_bond_atom_site_label_1
_geom_bond_atom_site_label_2
_geom_bond_distance
_geom_bond_site_symmetry_2
_ccdc_geom_bond_type
Y0     O10     2.230   .     S
Y0     O12     2.248   .     S
Y0     O13     2.258   .     S
Y0     O14     2.255   .     S
Y0     O15     2.266   .     S
Y0     O17     2.229   .     S
Y1     O8      2.279   .     S
Y1     O9      2.241   .     S
Y1     O11     2.253   .     S
Y1     O16     2.270   .     S
Y1     O18     2.270   .     S
Y1     O19     2.251   .     S
C2     O8      1.265   .     A
C2     O9      1.256   .     A
C2     C269    1.476   1_455 S
C3     O10     1.268   .     A
C3     O11     1.272   .     A
C3     C245    1.477   .     S
C4     O12     1.263   .     A
C4     O13     1.262   .     A
C4     C191    1.470   .     S
C5     O14     1.261   .     A
C5     O15     1.265   .     A
C5     C179    1.478   .     S
C6     O16     1.273   .     A
C6     O17     1.264   .     A
C6     C89     1.484   .     S
C7     O18     1.262   .     A
C7     O19     1.258   .     A
C7     C233    1.475   1_455 S
Y20    O30     2.244   .     S
Y20    O32     2.253   .     S
Y20    O33     2.254   .     S
Y20    O34     2.243   .     S
Y20    O35     2.266   .     S
Y20    O37     2.228   .     S
Y21    O28     2.252   .     S
Y21    O29     2.275   .     S
Y21    O31     2.261   .     S
Y21    O36     2.257   .     S
Y21    O38     2.270   .     S
Y21    O39     2.255   1_554 S
C22    O28     1.255   .     A
C22    O29     1.261   .     A
C22    C263    1.476   .     S
C23    O30     1.270   .     A
C23    O31     1.275   .     A
C23    C161    1.483   .     S
C24    O32     1.265   .     A
C24    O33     1.264   .     A
C24    C281    1.474   .     S
C25    O34     1.262   .     A
C25    O35     1.266   .     A
C25    C107    1.477   .     S
C26    O36     1.269   .     A
C26    O37     1.265   .     A
C26    C83     1.482   .     S
C27    O38     1.259   .     A
C27    O39     1.256   1_554 A
C27    C143    1.472   1_554 S
O39    Y21     2.255   1_556 S
O39    C27     1.256   1_556 A
Y40    O50     2.261   .     S
Y40    O52     2.243   .     S
Y40    O53     2.247   .     S
Y40    O54     2.248   .     S
Y40    O55     2.245   .     S
Y40    O57     2.211   .     S
Y41    O48     2.264   .     S
Y41    O49     2.257   .     S
Y41    O51     2.286   .     S
Y41    O56     2.267   .     S
Y41    O58     2.261   .     S
Y41    O59     2.260   .     S
C42    O48     1.259   .     A
C42    O49     1.258   .     A
C42    C227    1.474   1_545 S
C43    O50     1.275   .     A
C43    O51     1.280   .     A
C43    C155    1.478   .     S
C44    O52     1.267   .     A
C44    O53     1.270   .     A
C44    C215    1.476   1_655 S
C45    O54     1.266   .     A
C45    O55     1.264   .     A
C45    C119    1.473   .     S
C46    O56     1.261   .     A
C46    O57     1.252   .     A
C46    C251    1.458   .     S
C47    O58     1.259   .     A
C47    O59     1.257   .     A
C47    C137    1.473   .     S
Y60    O70     2.256   .     S
Y60    O72     2.221   .     S
Y60    O73     2.265   .     S
Y60    O74     2.253   .     S
Y60    O75     2.241   .     S
Y60    O77     2.222   .     S
Y61    O68     2.266   .     S
Y61    O69     2.256   .     S
Y61    O71     2.283   .     S
Y61    O76     2.271   .     S
Y61    O78     2.275   .     S
Y61    O79     2.244   .     S
C62    O68     1.260   .     A
C62    O69     1.258   .     A
C62    C287    1.475   .     S
C63    O70     1.274   .     A
C63    O71     1.280   .     A
C63    C173    1.477   .     S
C64    O72     1.262   .     A
C64    O73     1.272   .     A
C64    C125    1.474   .     S
C65    O74     1.268   .     A
C65    O75     1.266   .     A
C65    C209    1.475   .     S
C66    O76     1.263   .     A
C66    O77     1.258   .     A
C66    C101    1.468   .     S
C67    O78     1.261   .     A
C67    O79     1.255   .     A
C67    C197    1.472   .     S
C80    N85     1.363   .     A
C80    C81     1.405   1_554 A
C80    C86     1.485   1_554 S
C81    C82     1.395   .     A
C81    H96     1.082   .     S
C81    C80     1.405   1_556 A
C82    H92     1.083   .     S
C82    C83     1.404   1_556 A
C83    C84     1.404   .     A
C83    C82     1.404   1_554 A
C84    N85     1.362   .     A
C84    H93     1.082   .     S
C86    C91     1.407   .     A
C86    C80     1.485   1_556 S
C86    N87     1.362   1_556 A
N87    C86     1.362   1_554 A
N87    C88     1.361   1_554 A
C88    C89     1.406   .     A
C88    N87     1.361   1_556 A
C88    H94     1.082   1_556 S
C89    C90     1.402   .     A
C90    C91     1.396   .     A
C90    H95     1.083   .     S
C91    H97     1.081   .     S
H94    C88     1.082   1_554 S
C98    C99     1.407   .     A
C98    N103    1.361   .     A
C98    C104    1.481   .     S
C99    C100    1.402   .     A
C99    H114    1.082   .     S
C100   C101    1.401   .     A
C100   H110    1.083   .     S
C101   C102    1.397   .     A
C102   N103    1.357   .     A
C102   H111    1.083   .     S
C104   N105    1.360   .     A
C104   C109    1.407   .     A
N105   C106    1.357   .     A
C106   H112    1.083   .     S
C106   C107    1.402   1_545 A
C107   C106    1.402   1_565 A
C107   C108    1.403   1_565 A
C108   C109    1.401   .     A
C108   C107    1.403   1_545 A
C108   H113    1.083   1_545 S
C109   H115    1.081   .     S
H113   C108    1.083   1_565 S
C116   C117    1.408   .     A
C116   N121    1.362   .     A
C116   C122    1.482   .     S
C117   C118    1.393   .     A
C117   H132    1.081   .     S
C118   C119    1.399   .     A
C118   H128    1.083   .     S
C119   C120    1.404   .     A
C120   N121    1.360   .     A
C120   H129    1.082   .     S
C122   N123    1.365   .     A
C122   C127    1.404   .     A
N123   C124    1.363   .     A
C124   C125    1.402   .     A
C124   H130    1.082   .     S
C125   C126    1.402   .     A
C126   C127    1.389   .     A
C126   H131    1.084   .     S
C127   H133    1.081   .     S
C134   N139    1.363   .     A
C134   C140    1.484   .     S
C134   C135    1.408   1_565 A
C135   C136    1.394   .     A
C135   H150    1.079   .     S
C135   C134    1.408   1_545 A
C136   C137    1.399   .     A
C136   H146    1.083   .     S
C137   C138    1.402   1_545 A
C138   N139    1.359   .     A
C138   H147    1.082   .     S
C138   C137    1.402   1_565 A
C140   N141    1.364   .     A
C140   C145    1.407   .     A
N141   C142    1.359   .     A
C142   C143    1.400   .     A
C142   H148    1.082   .     S
C143   C144    1.401   .     A
C143   C27     1.472   1_556 S
C144   C145    1.394   .     A
C144   H149    1.083   .     S
C145   H151    1.080   1_565 S
H151   C145    1.080   1_545 S
C152   C153    1.403   .     A
C152   N157    1.361   .     A
C152   C158    1.475   .     S
C153   H168    1.083   .     S
C153   C154    1.397   1_565 A
C154   C155    1.404   .     A
C154   H164    1.083   .     S
C154   C153    1.397   1_545 A
C155   C156    1.403   .     A
C156   H165    1.083   .     S
C156   N157    1.359   1_545 A
N157   C156    1.359   1_565 A
C158   N159    1.362   .     A
C158   C163    1.401   .     A
N159   C160    1.361   .     A
C160   C161    1.406   .     A
C160   H166    1.083   .     S
C161   C162    1.403   .     A
C162   C163    1.395   .     A
C162   H167    1.078   .     S
C163   H169    1.083   .     S
C170   C171    1.406   .     A
C170   N175    1.361   .     A
C170   C176    1.482   .     S
C171   C172    1.398   .     A
C171   H186    1.082   .     S
C172   C173    1.401   .     A
C172   H182    1.083   .     S
C173   C174    1.404   .     A
C174   N175    1.360   .     A
C174   H183    1.083   .     S
C176   N177    1.363   .     A
C176   C181    1.404   .     A
N177   C178    1.361   .     A
C178   C179    1.402   .     A
C178   H184    1.082   .     S
C179   C180    1.403   .     A
C180   C181    1.396   .     A
C180   H185    1.083   .     S
C181   H187    1.082   .     S
C188   C189    1.403   .     A
C188   N193    1.360   .     A
C188   C194    1.470   .     S
C189   C190    1.399   .     A
C189   H204    1.083   .     S
C190   H200    1.083   .     S
C190   C191    1.403   1_554 A
C191   C190    1.403   1_556 A
C191   C192    1.399   1_556 A
C192   N193    1.356   .     A
C192   H201    1.083   .     S
C192   C191    1.399   1_554 A
C194   N195    1.359   .     A
C194   C199    1.404   .     A
N195   C196    1.355   .     A
C196   C197    1.402   .     A
C196   H202    1.083   .     S
C197   C198    1.402   .     A
C198   C199    1.400   .     A
C198   H203    1.082   .     S
C199   H205    1.082   .     S
C206   C207    1.407   .     A
C206   N211    1.364   .     A
C206   C212    1.486   .     S
C207   C208    1.395   .     A
C207   H222    1.080   .     S
C208   C209    1.401   .     A
C208   H218    1.083   .     S
C209   C210    1.402   .     A
C210   N211    1.360   .     A
C210   H219    1.082   .     S
C212   N213    1.363   .     A
C212   C217    1.408   .     A
N213   C214    1.360   .     A
C214   C215    1.403   .     A
C214   H220    1.083   .     S
C215   C216    1.400   .     A
C215   C44     1.476   1_455 S
C216   C217    1.395   .     A
C216   H221    1.083   .     S
C217   H223    1.080   .     S
C224   C225    1.406   .     A
C224   N229    1.362   .     A
C224   C230    1.481   .     S
C225   C226    1.396   .     A
C225   H240    1.082   .     S
C226   C227    1.401   .     A
C226   H236    1.083   1_565 S
C227   C228    1.403   .     A
C227   C42     1.474   1_565 S
C228   N229    1.359   .     A
C228   H237    1.082   .     S
C230   N231    1.363   .     A
C230   C235    1.406   .     A
N231   C232    1.361   1_655 A
C232   H238    1.082   .     S
C232   N231    1.361   1_455 A
C232   C233    1.402   1_455 A
C233   C234    1.401   .     A
C233   C232    1.402   1_655 A
C233   C7      1.475   1_655 S
C234   C235    1.393   .     A
C234   H239    1.083   .     S
C235   H241    1.081   .     S
H236   C226    1.083   1_545 S
C242   N247    1.357   .     A
C242   C243    1.405   1_455 A
C242   C248    1.472   1_455 S
C243   C244    1.400   .     A
C243   H258    1.082   .     S
C243   C242    1.405   1_655 A
C244   H254    1.083   .     S
C244   C245    1.403   1_655 A
C245   C246    1.402   .     A
C245   C244    1.403   1_455 A
C246   N247    1.354   .     A
C246   H255    1.075   .     S
C248   C253    1.405   .     A
C248   C242    1.472   1_655 S
C248   N249    1.362   1_655 A
N249   C250    1.357   .     A
N249   C248    1.362   1_455 A
C250   H256    1.083   .     S
C250   C251    1.397   1_455 A
C251   C252    1.398   .     A
C251   C250    1.397   1_655 A
C252   C253    1.396   .     A
C252   H257    1.083   .     S
C253   H259    1.082   .     S
C260   C261    1.405   .     A
C260   N265    1.364   1_554 A
C260   C266    1.485   1_554 S
C261   C262    1.396   .     A
C261   H276    1.081   .     S
C262   C263    1.403   .     A
C262   H272    1.083   .     S
C263   C264    1.400   1_554 A
C264   N265    1.360   .     A
C264   H273    1.083   .     S
C264   C263    1.400   1_556 A
N265   C260    1.364   1_556 A
C266   N267    1.360   .     A
C266   C260    1.485   1_556 S
C266   C271    1.410   1_556 A
N267   C268    1.357   .     A
C268   C269    1.403   .     A
C268   H274    1.082   .     S
C269   C270    1.400   1_556 A
C269   C2      1.476   1_655 S
C270   C271    1.400   .     A
C270   C269    1.400   1_554 A
C270   H275    1.083   1_655 S
C271   H277    1.080   .     S
C271   C266    1.410   1_554 A
H275   C270    1.083   1_455 S
C278   C279    1.405   .     A
C278   N283    1.362   .     A
C278   C284    1.477   .     S
C279   C280    1.394   .     A
C279   H294    1.082   .     S
C280   C281    1.400   .     A
C280   H290    1.083   .     S
C281   C282    1.404   .     A
C282   N283    1.362   .     A
C282   H291    1.082   .     S
C284   N285    1.361   .     A
C284   C289    1.404   .     A
N285   C286    1.360   .     A
C286   C287    1.404   .     A
C286   H292    1.082   .     S
C287   C288    1.403   .     A
C288   C289    1.396   .     A
C288   H293    1.083   .     S
C289   H295    1.083   .     S
