data_lcy+N123+E14
_audit_creation_date              2025-01-21
_audit_creation_method            'Materials Studio'
_symmetry_space_group_name_H-M    'P1'
_symmetry_Int_Tables_number       1
_symmetry_cell_setting            triclinic
loop_
_symmetry_equiv_pos_as_xyz
  x,y,z
_cell_length_a                    20.1702
_cell_length_b                    18.0256
_cell_length_c                    19.5865
_cell_angle_alpha                 92.7582
_cell_angle_beta                  106.7505
_cell_angle_gamma                 93.5928
loop_
_atom_site_label
_atom_site_type_symbol
_atom_site_fract_x
_atom_site_fract_y
_atom_site_fract_z
_atom_site_U_iso_or_equiv
_atom_site_adp_type
_atom_site_occupancy
Ce0    Ce    0.19462   0.61897   0.83990   0.00000  Uiso   1.00
Ce1    Ce    0.09160   0.64015   0.92975   0.00000  Uiso   1.00
C2     C     0.23071   0.69561   0.99210   0.00000  Uiso   1.00
C3     C     0.25425   0.58668   0.73453   0.00000  Uiso   1.00
C4     C     0.07111   0.73304   0.78819   0.00000  Uiso   1.00
C5     C     0.09125   0.50878   0.78875   0.00000  Uiso   1.00
C6     C     0.99298   0.64549  -0.00276   0.00000  Uiso   1.00
C7     C     0.21048   0.52177   0.98256   0.00000  Uiso   1.00
O8     O     0.19689   0.66027   0.02290   0.00000  Uiso   1.00
O9     O     0.19181   0.70666   0.92483   0.00000  Uiso   1.00
O10    O     0.27929   0.64044   0.78212   0.00000  Uiso   1.00
O11    O     0.20540   0.54611   0.74578   0.00000  Uiso   1.00
O12    O     0.12252   0.70267   0.77348   0.00000  Uiso   1.00
O13    O     0.04680   0.71544   0.84006   0.00000  Uiso   1.00
O14    O     0.13337   0.52602   0.75730   0.00000  Uiso   1.00
O15    O     0.10587   0.54869   0.85429   0.00000  Uiso   1.00
O16    O     0.99368   0.59289  -0.04832   0.00000  Uiso   1.00
O17    O     0.04423   0.69510   0.01052   0.00000  Uiso   1.00
O18    O     0.15706   0.55248   0.99265   0.00000  Uiso   1.00
O19    O     0.23760   0.53688   0.93069   0.00000  Uiso   1.00
Ce20   Ce    0.57310   0.93780   0.11780   0.00000  Uiso   1.00
Ce21   Ce    0.66768   0.81714   0.10034   0.00000  Uiso   1.00
C22    C     0.52603   0.77359   0.06514   0.00000  Uiso   1.00
C23    C     0.51284   0.06031   0.14845   0.00000  Uiso   1.00
C24    C     0.66237   0.96129   0.00578   0.00000  Uiso   1.00
C25    C     0.68126   0.97319   0.23189   0.00000  Uiso   1.00
C26    C     0.76299   0.72393   0.08839   0.00000  Uiso   1.00
C27    C     0.59134   0.80241   0.22677   0.00000  Uiso   1.00
O28    O     0.57119   0.73712   0.09925   0.00000  Uiso   1.00
O29    O     0.55360   0.83584   0.04245   0.00000  Uiso   1.00
O30    O     0.47840   0.00928   0.10163   0.00000  Uiso   1.00
O31    O     0.57578   0.04849   0.17726   0.00000  Uiso   1.00
O32    O     0.61924   0.98992   0.03509   0.00000  Uiso   1.00
O33    O     0.69001   0.89915   0.02178   0.00000  Uiso   1.00
O34    O     0.63975   0.01870   0.20783   0.00000  Uiso   1.00
O35    O     0.67727   0.91244   0.18373   0.00000  Uiso   1.00
O36    O     0.77387   0.77347   0.14006   0.00000  Uiso   1.00
O37    O     0.70103   0.71764   0.04566   0.00000  Uiso   1.00
O38    O     0.63287   0.77338   0.19456   0.00000  Uiso   1.00
O39    O     0.55695   0.86067   0.20579   0.00000  Uiso   1.00
Ce40   Ce    0.89347   0.11977   0.56574   0.00000  Uiso   1.00
Ce41   Ce    0.81096   0.09106   0.67267   0.00000  Uiso   1.00
C42    C     0.76101   0.01795   0.53475   0.00000  Uiso   1.00
C43    C     0.97921   0.15679   0.48623   0.00000  Uiso   1.00
C44    C     0.94995   0.00167   0.68504   0.00000  Uiso   1.00
C45    C     0.94286   0.23704   0.65989   0.00000  Uiso   1.00
C46    C     0.74631   0.06817   0.77274   0.00000  Uiso   1.00
C47    C     0.74310   0.19628   0.54497   0.00000  Uiso   1.00
O48    O     0.72431   0.04221   0.56743   0.00000  Uiso   1.00
O49    O     0.82647   0.02340   0.57623   0.00000  Uiso   1.00
O50    O     0.93687   0.09847   0.46995   0.00000  Uiso   1.00
O51    O     0.97369   0.19783   0.53878   0.00000  Uiso   1.00
O52    O     0.96805   0.04288   0.63928   0.00000  Uiso   1.00
O53    O     0.89750   0.01254   0.70929   0.00000  Uiso   1.00
O54    O     0.96108   0.22687   0.60611   0.00000  Uiso   1.00
O55    O     0.89281   0.18268   0.66678   0.00000  Uiso   1.00
O56    O     0.78682   0.12607   0.77524   0.00000  Uiso   1.00
O57    O     0.73565   0.02371   0.71716   0.00000  Uiso   1.00
O58    O     0.74051   0.17216   0.60531   0.00000  Uiso   1.00
O59    O     0.79374   0.18528   0.51704   0.00000  Uiso   1.00
Ce60   Ce    0.43592   0.45105   0.38979   0.00000  Uiso   1.00
Ce61   Ce    0.32829   0.32758   0.39415   0.00000  Uiso   1.00
C62    C     0.46597   0.29119   0.44276   0.00000  Uiso   1.00
C63    C     0.50842   0.57817   0.37643   0.00000  Uiso   1.00
C64    C     0.33389   0.48276   0.48936   0.00000  Uiso   1.00
C65    C     0.33942   0.46677   0.26639   0.00000  Uiso   1.00
C66    C     0.22049   0.23579   0.39907   0.00000  Uiso   1.00
C67    C     0.42122   0.30212   0.28309   0.00000  Uiso   1.00
O68    O     0.41817   0.25049   0.40427   0.00000  Uiso   1.00
O69    O     0.44269   0.35688   0.46286   0.00000  Uiso   1.00
O70    O     0.53587   0.53174   0.42173   0.00000  Uiso   1.00
O71    O     0.44795   0.55675   0.33605   0.00000  Uiso   1.00
O72    O     0.38351   0.51097   0.46653   0.00000  Uiso   1.00
O73    O     0.30259   0.41742   0.46762   0.00000  Uiso   1.00
O74    O     0.38631   0.51505   0.29312   0.00000  Uiso   1.00
O75    O     0.33298   0.41205   0.31291   0.00000  Uiso   1.00
O76    O     0.21845   0.27431   0.34560   0.00000  Uiso   1.00
O77    O     0.28028   0.23579   0.44523   0.00000  Uiso   1.00
O78    O     0.37059   0.27478   0.30583   0.00000  Uiso   1.00
O79    O     0.45814   0.36518   0.30811   0.00000  Uiso   1.00
C80    C     0.40325   0.80166   1.01002   0.00000  Uiso   1.00
C81    C     0.45050   0.75550   0.05157   0.00000  Uiso   1.00
C82    C     0.42449   0.69334   0.08001   0.00000  Uiso   1.00
C83    C     0.35256   0.67738   1.06583   0.00000  Uiso   1.00
C84    C     0.30559   0.72031   1.01978   0.00000  Uiso   1.00
C85    C     0.33175   0.78328   0.99306   0.00000  Uiso   1.00
H86    H     0.42172   0.85103  -0.01123   0.00000  Uiso   1.00
H87    H     0.46005   0.65711   0.11275   0.00000  Uiso   1.00
H88    H     0.33328   0.63032   1.08879   0.00000  Uiso   1.00
H89    H     0.29646   0.81782   0.95811   0.00000  Uiso   1.00
C90    C     0.39778   0.21002   0.17763   0.00000  Uiso   1.00
C91    C     0.44479   0.25140   0.23637   0.00000  Uiso   1.00
C92    C     0.51290   0.23221   0.26122   0.00000  Uiso   1.00
C93    C     0.53266   0.16920   0.23186   0.00000  Uiso   1.00
C94    C     0.48664   0.12702   0.17343   0.00000  Uiso   1.00
C95    C     0.41910   0.14825   0.14517   0.00000  Uiso   1.00
H96    H     0.34417   0.22332   0.15900   0.00000  Uiso   1.00
H97    H     0.54914   0.26216   0.30769   0.00000  Uiso   1.00
H98    H     0.58386   0.15200   0.25708   0.00000  Uiso   1.00
H99    H     0.38245   0.11560   0.10098   0.00000  Uiso   1.00
C100   C     0.66401   0.30120   0.52234   0.00000  Uiso   1.00
C101   C     0.67865   0.22869   0.50412   0.00000  Uiso   1.00
C102   C     0.62346   0.17903   0.46308   0.00000  Uiso   1.00
C103   C     0.55510   0.19980   0.44282   0.00000  Uiso   1.00
C104   C     0.53967   0.27139   0.46292   0.00000  Uiso   1.00
C105   C     0.59531   0.32255   0.50140   0.00000  Uiso   1.00
H106   H     0.70526   0.33981   0.55575   0.00000  Uiso   1.00
H107   H     0.63274   0.12194   0.45145   0.00000  Uiso   1.00
H108   H     0.51375   0.15886   0.41322   0.00000  Uiso   1.00
H109   H     0.58523   0.37836   0.51709   0.00000  Uiso   1.00
C110   C     0.75926   0.07213   0.90282   0.00000  Uiso   1.00
C111   C     0.71884   0.05108   0.83221   0.00000  Uiso   1.00
C112   C     0.65608   1.00725   0.81975   0.00000  Uiso   1.00
C113   C     0.63567   0.98188   0.87733   0.00000  Uiso   1.00
C114   C     0.67824   0.99916   0.94760   0.00000  Uiso   1.00
C115   C     0.73972   0.04527   0.96031   0.00000  Uiso   1.00
H116   H     0.80803   0.10570   0.91324   0.00000  Uiso   1.00
H117   H     0.62416   0.99097   0.76552   0.00000  Uiso   1.00
H118   H     0.58845   0.94551   0.86698   0.00000  Uiso   1.00
H119   H     0.77346   0.05791   0.01435   0.00000  Uiso   1.00
C120   C     0.79220  -0.01783   0.42437   0.00000  Uiso   1.00
C121   C     0.74057  -0.00846   0.45896   0.00000  Uiso   1.00
C122   C     0.67082   0.98333   0.41915   0.00000  Uiso   1.00
C123   C     0.65318   0.97317   0.34513   0.00000  Uiso   1.00
C124   C     0.70482   0.97084   0.30968   0.00000  Uiso   1.00
C125   C     0.77454  -0.02790   0.34960   0.00000  Uiso   1.00
H126   H     0.84640  -0.01445   0.45520   0.00000  Uiso   1.00
H127   H     0.63017   0.98870   0.44472   0.00000  Uiso   1.00
H128   H     0.59869   0.97065   0.31517   0.00000  Uiso   1.00
H129   H     0.81483  -0.03124   0.32333   0.00000  Uiso   1.00
C130   C     0.24452   0.50945   0.54973   0.00000  Uiso   1.00
C131   C     0.31236   0.52412   0.54595   0.00000  Uiso   1.00
C132   C     0.36069   0.56783   0.60242   0.00000  Uiso   1.00
C133   C     0.34238   0.59142   0.66380   0.00000  Uiso   1.00
C134   C     0.27528   0.57193   0.66895   0.00000  Uiso   1.00
C135   C     0.22615   0.53314   0.61004   0.00000  Uiso   1.00
H136   H     0.20624   0.47646   0.50704   0.00000  Uiso   1.00
H137   H     0.41343   0.57976   0.60106   0.00000  Uiso   1.00
H138   H     0.38105   0.62191   0.70816   0.00000  Uiso   1.00
H139   H     0.17362   0.51821   0.61181   0.00000  Uiso   1.00
C140   C     0.20530   0.44689   0.08477   0.00000  Uiso   1.00
C141   C     0.24500   0.47641   0.04183   0.00000  Uiso   1.00
C142   C     0.31720   0.48511   0.07013   0.00000  Uiso   1.00
C143   C     0.34742   0.47914   0.14322   0.00000  Uiso   1.00
C144   C     0.30632   0.46063   0.18837   0.00000  Uiso   1.00
C145   C     0.23574   0.43923   0.15787   0.00000  Uiso   1.00
H146   H     0.14926   0.43786   0.06370   0.00000  Uiso   1.00
H147   H     0.34912   0.50658   0.03846   0.00000  Uiso   1.00
H148   H     0.40287   0.49266   0.16560   0.00000  Uiso   1.00
H149   H     0.20329   0.42260   0.19097   0.00000  Uiso   1.00
C150   C     0.12854   0.26517   0.45092   0.00000  Uiso   1.00
C151   C     0.15652   0.21170   0.41548   0.00000  Uiso   1.00
C152   C     0.12153   0.14061   0.39499   0.00000  Uiso   1.00
C153   C     0.06029   0.12249   0.41386   0.00000  Uiso   1.00
C154   C     0.03414   0.17582   0.45251   0.00000  Uiso   1.00
C155   C     0.06779   0.24770   0.46845   0.00000  Uiso   1.00
H156   H     0.15330   0.32111   0.46433   0.00000  Uiso   1.00
H157   H     0.14217   0.09926   0.36654   0.00000  Uiso   1.00
H158   H     0.03589   0.06634   0.40206   0.00000  Uiso   1.00
H159   H     0.04744   0.29005   0.49605   0.00000  Uiso   1.00
C160   C     0.94282   0.87276   0.72187   0.00000  Uiso   1.00
C161   C     0.98370   0.93183   0.70563   0.00000  Uiso   1.00
C162   C     0.05190   0.91982   0.70561   0.00000  Uiso   1.00
C163   C     0.07979   0.85169   0.72673   0.00000  Uiso   1.00
C164   C     0.03939   0.79505   0.74718   0.00000  Uiso   1.00
C165   C     0.96997   0.80549   0.74176   0.00000  Uiso   1.00
H166   H     0.88924   0.87876   0.72020   0.00000  Uiso   1.00
H167   H     0.08430   0.96370   0.69209   0.00000  Uiso   1.00
H168   H     0.13392   0.84506   0.73143   0.00000  Uiso   1.00
H169   H     0.93743   0.76252   0.75622   0.00000  Uiso   1.00
C170   C     0.97608   0.43164   0.74781   0.00000  Uiso   1.00
C171   C     1.04907   0.43740   0.76960   0.00000  Uiso   1.00
C172   C     0.08447   0.37340   0.76631   0.00000  Uiso   1.00
C173   C     0.04803   0.30563   0.73749   0.00000  Uiso   1.00
C174   C     0.97547   0.30022   0.71115   0.00000  Uiso   1.00
C175   C     0.93924   0.36292   0.71856   0.00000  Uiso   1.00
H176   H     0.94801   0.48060   0.74967   0.00000  Uiso   1.00
H177   H     0.14090   0.37654   0.78263   0.00000  Uiso   1.00
H178   H     0.07701   0.25856   0.73074   0.00000  Uiso   1.00
H179   H     0.88336   0.36011   0.69658   0.00000  Uiso   1.00
C180   C     0.81023   0.64344   1.00935   0.00000  Uiso   1.00
C181   C     0.82045   0.68489   0.07472   0.00000  Uiso   1.00
C182   C     0.88853   0.70188   0.12023   0.00000  Uiso   1.00
C183   C     0.94544   0.68576   0.09661   0.00000  Uiso   1.00
C184   C     0.93505   0.65024   0.02849   0.00000  Uiso   1.00
C185   C     0.86730   0.62539   0.98677   0.00000  Uiso   1.00
H186   H     0.75842   0.63015   0.97332   0.00000  Uiso   1.00
H187   H     0.89777   0.73224   0.17180   0.00000  Uiso   1.00
H188   H     0.99735   0.70357   0.13020   0.00000  Uiso   1.00
H189   H     0.85792   0.59750   0.93406   0.00000  Uiso   1.00
C190   C     0.51688   0.76254   0.30232   0.00000  Uiso   1.00
C191   C     0.57969   0.76088   0.28580   0.00000  Uiso   1.00
C192   C     0.62716   0.70941   0.31797   0.00000  Uiso   1.00
C193   C     0.60776   0.65352   0.35713   0.00000  Uiso   1.00
C194   C     0.54096   0.64930   0.36486   0.00000  Uiso   1.00
C195   C     0.49746   0.70686   0.34148   0.00000  Uiso   1.00
H196   H     0.47970   0.80178   0.27883   0.00000  Uiso   1.00
H197   H     0.67685   0.70774   0.30741   0.00000  Uiso   1.00
H198   H     0.64170   0.60943   0.37421   0.00000  Uiso   1.00
H199   H     0.44556   0.70438   0.34724   0.00000  Uiso   1.00
loop_
_geom_bond_atom_site_label_1
_geom_bond_atom_site_label_2
_geom_bond_distance
_geom_bond_site_symmetry_2
_ccdc_geom_bond_type
Ce0    O9      2.254   .     S
Ce0    O10     2.328   .     S
Ce0    O11     2.281   .     S
Ce0    O12     2.336   .     S
Ce0    O14     2.298   .     S
Ce0    O15     2.220   .     S
Ce0    O19     2.373   .     S
Ce1    O9      2.313   .     S
Ce1    O13     2.283   .     S
Ce1    O15     2.248   .     S
Ce1    O18     2.296   .     S
Ce1    O8      2.361   1_556 S
Ce1    O16     2.264   1_456 S
Ce1    O17     2.288   1_556 S
C2     O9      1.357   .     S
C2     C84     1.481   .     S
C2     O8      1.206   1_556 D
C3     O10     1.282   .     A
C3     O11     1.267   .     A
C3     C134    1.482   .     S
C4     O12     1.298   .     A
C4     O13     1.293   .     A
C4     C164    1.478   .     S
C5     O14     1.219   .     D
C5     O15     1.385   .     S
C5     C171    1.467   1_455 S
C6     O16     1.274   .     A
C6     C184    1.472   .     S
C6     O17     1.282   1_655 A
C7     O18     1.301   .     A
C7     O19     1.317   .     A
C7     C141    1.482   1_556 S
O8     Ce1     2.361   1_554 S
O8     C2      1.206   1_554 D
O16    Ce1     2.264   1_654 S
O17    Ce1     2.288   1_554 S
O17    C6      1.282   1_455 A
Ce20   O29     2.242   .     S
Ce20   O32     2.298   .     S
Ce20   O35     2.215   .     S
Ce20   O39     2.347   .     S
Ce20   O30     2.325   1_565 S
Ce20   O31     2.251   1_565 S
Ce20   O34     2.277   1_565 S
Ce21   O28     2.343   .     S
Ce21   O29     2.307   .     S
Ce21   O33     2.300   .     S
Ce21   O35     2.272   .     S
Ce21   O36     2.263   .     S
Ce21   O37     2.280   .     S
Ce21   O38     2.310   .     S
C22    O28     1.214   .     D
C22    O29     1.370   .     S
C22    C81     1.481   .     S
C23    O30     1.281   .     A
C23    O31     1.268   .     A
C23    C94     1.462   .     S
C24    O32     1.292   .     A
C24    O33     1.294   .     A
C24    C114    1.458   1_554 S
C25    O35     1.393   .     S
C25    C124    1.463   .     S
C25    O34     1.221   1_565 D
C26    O36     1.277   .     A
C26    O37     1.283   .     A
C26    C181    1.474   .     S
C27    O38     1.304   .     A
C27    O39     1.312   .     A
C27    C191    1.473   .     S
O30    Ce20    2.325   1_545 S
O31    Ce20    2.251   1_545 S
O34    Ce20    2.277   1_545 S
O34    C25     1.221   1_545 D
Ce40   O49     2.188   .     S
Ce40   O50     2.314   .     S
Ce40   O51     2.271   .     S
Ce40   O52     2.337   .     S
Ce40   O54     2.261   .     S
Ce40   O55     2.237   .     S
Ce40   O59     2.377   .     S
Ce41   O48     2.374   .     S
Ce41   O49     2.306   .     S
Ce41   O53     2.291   .     S
Ce41   O55     2.292   .     S
Ce41   O56     2.270   .     S
Ce41   O57     2.275   .     S
Ce41   O58     2.294   .     S
C42    O48     1.198   .     D
C42    O49     1.331   .     S
C42    C121    1.468   .     S
C43    O50     1.278   .     A
C43    O51     1.274   .     A
C43    C154    1.476   1_655 S
C44    O52     1.307   .     A
C44    O53     1.300   .     A
C44    C161    1.486   1_545 S
C45    O54     1.221   .     D
C45    O55     1.402   .     S
C45    C174    1.467   .     S
C46    O56     1.274   .     A
C46    O57     1.278   .     A
C46    C111    1.464   .     S
C47    O58     1.293   .     A
C47    O59     1.311   .     A
C47    C101    1.487   .     S
Ce60   O69     2.258   .     S
Ce60   O70     2.321   .     S
Ce60   O71     2.254   .     S
Ce60   O72     2.334   .     S
Ce60   O74     2.276   .     S
Ce60   O75     2.233   .     S
Ce60   O79     2.328   .     S
Ce61   O68     2.322   .     S
Ce61   O69     2.325   .     S
Ce61   O73     2.296   .     S
Ce61   O75     2.272   .     S
Ce61   O76     2.273   .     S
Ce61   O77     2.279   .     S
Ce61   O78     2.328   .     S
C62    O68     1.215   .     D
C62    O69     1.382   .     S
C62    C104    1.495   .     S
C63    O70     1.281   .     A
C63    O71     1.272   .     A
C63    C194    1.461   .     S
C64    O72     1.295   .     A
C64    O73     1.293   .     A
C64    C131    1.487   .     S
C65    O74     1.222   .     D
C65    O75     1.400   .     S
C65    C144    1.476   .     S
C66    O76     1.276   .     A
C66    O77     1.282   .     A
C66    C151    1.462   .     S
C67    O78     1.305   .     A
C67    O79     1.310   .     A
C67    C91     1.457   .     S
C80    C85     1.398   .     A
C80    C81     1.407   1_556 A
C80    H86     1.090   1_556 S
C81    C82     1.413   .     A
C81    C80     1.407   1_554 A
C82    H87     1.089   .     S
C82    C83     1.405   1_554 A
C83    C84     1.406   .     A
C83    H88     1.081   .     S
C83    C82     1.405   1_556 A
C84    C85     1.408   .     A
C85    H89     1.086   .     S
H86    C80     1.090   1_554 S
C90    C91     1.407   .     A
C90    C95     1.407   .     A
C90    H96     1.083   .     S
C91    C92     1.391   .     A
C92    C93     1.380   .     A
C92    H97     1.084   .     S
C93    C94     1.402   .     A
C93    H98     1.080   .     S
C94    C95     1.400   .     A
C95    H99     1.082   .     S
C100   C101    1.410   .     A
C100   C105    1.411   .     A
C100   H106    1.084   .     S
C101   C102    1.406   .     A
C102   C103    1.401   .     A
C102   H107    1.083   .     S
C103   C104    1.410   .     A
C103   H108    1.086   .     S
C104   C105    1.412   .     A
C105   H109    1.086   .     S
C110   C111    1.408   .     A
C110   C115    1.394   .     A
C110   H116    1.083   .     S
C111   C112    1.401   1_545 A
C112   C113    1.395   .     A
C112   H117    1.087   .     S
C112   C111    1.401   1_565 A
C113   C114    1.405   .     A
C113   H118    1.084   .     S
C114   C115    1.401   1_565 A
C114   C24     1.458   1_556 S
C115   C114    1.401   1_545 A
C115   H119    1.085   1_556 S
H119   C115    1.085   1_554 S
C120   C121    1.411   .     A
C120   C125    1.404   .     A
C120   H126    1.082   .     S
C121   C122    1.393   1_545 A
C122   C123    1.390   .     A
C122   H127    1.084   .     S
C122   C121    1.393   1_565 A
C123   C124    1.410   .     A
C123   H128    1.083   .     S
C124   C125    1.396   1_565 A
C125   H129    1.083   .     S
C125   C124    1.396   1_545 A
C130   C131    1.401   .     A
C130   C135    1.392   .     A
C130   H136    1.082   .     S
C131   C132    1.412   .     A
C132   C133    1.410   .     A
C132   H137    1.080   .     S
C133   C134    1.410   .     A
C133   H138    1.084   .     S
C134   C135    1.407   .     A
C135   H139    1.087   .     S
C140   C141    1.418   .     A
C140   C145    1.403   .     A
C140   H146    1.084   .     S
C141   C142    1.397   .     A
C141   C7      1.482   1_554 S
C142   C143    1.397   .     A
C142   H147    1.082   .     S
C143   C144    1.413   .     A
C143   H148    1.084   .     S
C144   C145    1.397   .     A
C145   H149    1.085   .     S
C150   C151    1.400   .     A
C150   C155    1.387   .     A
C150   H156    1.082   .     S
C151   C152    1.405   .     A
C152   C153    1.412   .     A
C152   H157    1.083   .     S
C153   C154    1.414   .     A
C153   H158    1.081   .     S
C154   C155    1.402   .     A
C154   C43     1.476   1_455 S
C155   H159    1.082   .     S
C160   C161    1.410   .     A
C160   C165    1.388   .     A
C160   H166    1.084   .     S
C161   C162    1.406   1_655 A
C161   C44     1.486   1_565 S
C162   C163    1.413   .     A
C162   H167    1.085   .     S
C162   C161    1.406   1_455 A
C163   C164    1.411   .     A
C163   H168    1.083   .     S
C164   C165    1.399   1_455 A
C165   H169    1.084   .     S
C165   C164    1.399   1_655 A
C170   C171    1.405   .     A
C170   C175    1.409   .     A
C170   H176    1.083   .     S
C171   C172    1.403   1_655 A
C171   C5      1.467   1_655 S
C172   C173    1.390   .     A
C172   H177    1.087   .     S
C172   C171    1.403   1_455 A
C173   H178    1.084   .     S
C173   C174    1.400   1_455 A
C174   C175    1.408   .     A
C174   C173    1.400   1_655 A
C175   H179    1.081   .     S
C180   C185    1.398   .     A
C180   H186    1.084   .     S
C180   C181    1.406   1_556 A
C181   C182    1.410   .     A
C181   C180    1.406   1_554 A
C182   C183    1.397   .     A
C182   H187    1.086   .     S
C183   C184    1.405   .     A
C183   H188    1.083   .     S
C184   C185    1.407   1_554 A
C185   H189    1.086   .     S
C185   C184    1.407   1_556 A
C190   C191    1.397   .     A
C190   C195    1.395   .     A
C190   H196    1.083   .     S
C191   C192    1.412   .     A
C192   C193    1.398   .     A
C192   H197    1.082   .     S
C193   C194    1.396   .     A
C193   H198    1.084   .     S
C194   C195    1.409   .     A
C195   H199    1.083   .     S
