data_lcy+N139+E8
_audit_creation_date              2025-01-21
_audit_creation_method            'Materials Studio'
_symmetry_space_group_name_H-M    'P1'
_symmetry_Int_Tables_number       1
_symmetry_cell_setting            triclinic
loop_
_symmetry_equiv_pos_as_xyz
  x,y,z
_cell_length_a                    22.9026
_cell_length_b                    22.1273
_cell_length_c                    22.9225
_cell_angle_alpha                 98.3995
_cell_angle_beta                  86.2960
_cell_angle_gamma                 82.8954
loop_
_atom_site_label
_atom_site_type_symbol
_atom_site_fract_x
_atom_site_fract_y
_atom_site_fract_z
_atom_site_U_iso_or_equiv
_atom_site_adp_type
_atom_site_occupancy
C0     C     1.05777   0.51031   0.84104   0.00000  Uiso   1.00
Sm1    Sm    0.10282   0.67550   0.94543   0.00000  Uiso   1.00
Sm2    Sm    0.13037   0.59708   0.86703   0.00000  Uiso   1.00
C3     C     0.15638   0.55928   0.98963   0.00000  Uiso   1.00
C4     C     0.21375   0.54199   0.77965   0.00000  Uiso   1.00
O5     O     0.20256   0.66763   0.92749   0.00000  Uiso   1.00
O6     O     0.16164   0.73944   0.99187   0.00000  Uiso   1.00
O7     O     0.09075   0.65955   0.80564   0.00000  Uiso   1.00
O8     O     0.08890   0.73787   0.87825   0.00000  Uiso   1.00
O9     O     0.00715   0.66036   0.93931   0.00000  Uiso   1.00
O10    O     0.02367   0.72782   1.00668   0.00000  Uiso   1.00
O11    O     0.04398   0.55718   0.88010   0.00000  Uiso   1.00
O12    O     0.10812   0.50899   0.81441   0.00000  Uiso   1.00
O13    O     0.12036   0.60806   1.00795   0.00000  Uiso   1.00
O14    O     0.17050   0.54269   0.93418   0.00000  Uiso   1.00
O15    O     0.21926   0.59152   0.81319   0.00000  Uiso   1.00
O16    O     0.16654   0.52088   0.79237   0.00000  Uiso   1.00
C17    C     0.20956   0.71262   0.96533   0.00000  Uiso   1.00
C18    C     0.08279   0.71765   0.82439   0.00000  Uiso   1.00
C19    C     0.98498   0.70126   0.98091   0.00000  Uiso   1.00
C20    C     0.58191   0.79308   0.23348   0.00000  Uiso   1.00
Sm21   Sm    0.73012   0.93882   0.08970   0.00000  Uiso   1.00
Sm22   Sm    0.54654   0.88756   0.17659   0.00000  Uiso   1.00
C23    C     0.65913   0.82895   0.09302   0.00000  Uiso   1.00
C24    C     0.47096   0.85710   0.09872   0.00000  Uiso   1.00
O25    O     0.70917   0.97368   0.00696   0.00000  Uiso   1.00
O26    O     0.77695   0.89521   0.00207   0.00000  Uiso   1.00
O27    O     0.62476   0.93910   0.18676   0.00000  Uiso   1.00
O28    O     0.67338   1.00905   0.15678   0.00000  Uiso   1.00
O29    O     0.78067   0.90768   0.16160   0.00000  Uiso   1.00
O30    O     0.80872   0.98152   0.11835   0.00000  Uiso   1.00
O31    O     0.59234   0.79151   0.17807   0.00000  Uiso   1.00
O32    O     0.55961   0.84592   0.26027   0.00000  Uiso   1.00
O33    O     0.65390   0.88359   0.08166   0.00000  Uiso   1.00
O34    O     0.61689   0.81229   0.12381   0.00000  Uiso   1.00
O35    O     0.51030   0.89139   0.08801   0.00000  Uiso   1.00
O36    O     0.47154   0.83904   0.14896   0.00000  Uiso   1.00
C37    C     0.74718   0.93356   0.97449   0.00000  Uiso   1.00
C38    C     0.62729   0.99546   0.18266   0.00000  Uiso   1.00
C39    C     0.81435   0.94976   0.16090   0.00000  Uiso   1.00
C40    C     0.86998   0.04044   0.48375   0.00000  Uiso   1.00
Sm41   Sm    0.92112   0.10717   0.65363   0.00000  Uiso   1.00
Sm42   Sm    0.85925   0.11664   0.58771   0.00000  Uiso   1.00
C43    C     0.97658   0.16013   0.55197   0.00000  Uiso   1.00
C44    C     0.76210   0.18756   0.56386   0.00000  Uiso   1.00
O45    O     0.90646   0.20727   0.69587   0.00000  Uiso   1.00
O46    O     0.96929   0.14603   0.73016   0.00000  Uiso   1.00
O47    O     0.80109   0.05948   0.63504   0.00000  Uiso   1.00
O48    O     0.84932   0.08465   0.71298   0.00000  Uiso   1.00
O49    O     0.96093   0.00725   0.64410   0.00000  Uiso   1.00
O50    O     0.98563   0.07061   0.71397   0.00000  Uiso   1.00
O51    O     0.90314   0.03147   0.52476   0.00000  Uiso   1.00
O52    O     0.82973   0.08585   0.49799   0.00000  Uiso   1.00
O53    O     0.99193   0.12843   0.59165   0.00000  Uiso   1.00
O54    O     0.92199   0.17161   0.54381   0.00000  Uiso   1.00
O55    O     0.78672   0.19855   0.61162   0.00000  Uiso   1.00
O56    O     0.78886   0.14170   0.52845   0.00000  Uiso   1.00
C57    C     0.94549   0.20133   0.73216   0.00000  Uiso   1.00
C58    C     0.80844   0.05846   0.68967   0.00000  Uiso   1.00
C59    C     0.98913   0.01469   0.68983   0.00000  Uiso   1.00
C60    C     0.31072   0.46259   0.26069   0.00000  Uiso   1.00
Sm61   Sm    0.36207   0.28156   0.38017   0.00000  Uiso   1.00
Sm62   Sm    0.39545   0.42372   0.32820   0.00000  Uiso   1.00
C63    C     0.43934   0.31833   0.26518   0.00000  Uiso   1.00
C64    C     0.45751   0.51911   0.33271   0.00000  Uiso   1.00
O65    O     0.42408   0.31173   0.45050   0.00000  Uiso   1.00
O66    O     0.45290   0.23433   0.38521   0.00000  Uiso   1.00
O67    O     0.34573   0.45753   0.41540   0.00000  Uiso   1.00
O68    O     0.36969   0.36712   0.45091   0.00000  Uiso   1.00
O69    O     0.26667   0.31789   0.39919   0.00000  Uiso   1.00
O70    O     0.30515   0.24465   0.44443   0.00000  Uiso   1.00
O71    O     0.31161   0.41306   0.28233   0.00000  Uiso   1.00
O72    O     0.35144   0.49375   0.27666   0.00000  Uiso   1.00
O73    O     0.40205   0.32502   0.30979   0.00000  Uiso   1.00
O74    O     0.44795   0.36881   0.24782   0.00000  Uiso   1.00
O75    O     0.47353   0.47149   0.35541   0.00000  Uiso   1.00
O76    O     0.40996   0.51720   0.30748   0.00000  Uiso   1.00
C77    C     0.46645   0.27023   0.42852   0.00000  Uiso   1.00
C78    C     0.35034   0.42583   0.45802   0.00000  Uiso   1.00
C79    C     0.25874   0.27945   0.43483   0.00000  Uiso   1.00
C80    C     0.37037   0.76129   1.02256   0.00000  Uiso   1.00
C81    C     0.32811   0.80619   1.00663   0.00000  Uiso   1.00
N82    N     0.33791   0.86608   1.01395   0.00000  Uiso   1.00
C83    C     0.38717   0.88334   1.03834   0.00000  Uiso   1.00
C84    C     0.42716   0.83901   1.05823   0.00000  Uiso   1.00
N85    N     0.41789   0.77893   1.04934   0.00000  Uiso   1.00
N86    N     0.36143   0.70126   1.01435   0.00000  Uiso   1.00
C87    C     0.31132   0.68417   0.99220   0.00000  Uiso   1.00
C88    C     0.26725   0.72941   0.97992   0.00000  Uiso   1.00
N89    N     0.27677   0.78953   0.98703   0.00000  Uiso   1.00
H90    H     0.39300   0.93158   0.04566   0.00000  Uiso   1.00
H91    H     0.30456   0.63616   0.98728   0.00000  Uiso   1.00
C92    C     0.49976   0.15144   0.23924   0.00000  Uiso   1.00
C93    C     0.54609   0.15116   0.19619   0.00000  Uiso   1.00
N94    N     0.55431   0.20340   0.17448   0.00000  Uiso   1.00
C95    C     0.51885   0.25703   0.19456   0.00000  Uiso   1.00
C96    C     0.47330   0.25868   0.23893   0.00000  Uiso   1.00
N97    N     0.46430   0.20553   0.25998   0.00000  Uiso   1.00
N98    N     0.49287   0.09833   0.26094   0.00000  Uiso   1.00
C99    C     0.53107   0.04532   0.24221   0.00000  Uiso   1.00
C100   C     0.57872   0.04617   0.20058   0.00000  Uiso   1.00
N101   N     0.58412   0.09915   0.17862   0.00000  Uiso   1.00
H102   H     0.52744   0.29837   0.17733   0.00000  Uiso   1.00
H103   H     0.52531   1.00395   0.26066   0.00000  Uiso   1.00
C104   C     0.64003   0.23340   0.47642   0.00000  Uiso   1.00
C105   C     0.59546   0.26266   0.52003   0.00000  Uiso   1.00
N106   N     0.60844   0.27240   0.57754   0.00000  Uiso   1.00
C107   C     0.66334   0.25280   0.59325   0.00000  Uiso   1.00
C108   C     0.70668   0.22083   0.54964   0.00000  Uiso   1.00
N109   N     0.69378   0.21271   0.49231   0.00000  Uiso   1.00
N110   N     0.62808   0.22263   0.41915   0.00000  Uiso   1.00
C111   C     0.57295   0.23787   0.40333   0.00000  Uiso   1.00
C112   C     0.52708   0.26401   0.44677   0.00000  Uiso   1.00
N113   N     0.53944   0.27712   0.50442   0.00000  Uiso   1.00
H114   H     0.67215   0.25917   0.63942   0.00000  Uiso   1.00
H115   H     0.56460   0.22800   0.35719   0.00000  Uiso   1.00
C116   C     0.78685   0.95749   0.79871   0.00000  Uiso   1.00
C117   C     0.73500   0.98855   0.83076   0.00000  Uiso   1.00
N118   N     0.70217   0.03383   0.80834   0.00000  Uiso   1.00
C119   C     0.72044   0.05170   0.75647   0.00000  Uiso   1.00
C120   C     0.77497   0.02433   0.72699   0.00000  Uiso   1.00
N121   N     0.80612  -0.02296   0.74839   0.00000  Uiso   1.00
N122   N     0.82063   0.91338   0.82166   0.00000  Uiso   1.00
C123   C     0.80615   0.90055   0.87663   0.00000  Uiso   1.00
C124   C     0.75695   0.93517   0.91086   0.00000  Uiso   1.00
N125   N     0.72171   0.97729   0.88643   0.00000  Uiso   1.00
H126   H     0.69542   0.09044   0.74136   0.00000  Uiso   1.00
H127   H     0.83467   0.86637   0.89452   0.00000  Uiso   1.00
C128   C     0.87768   1.01419   0.32161   0.00000  Uiso   1.00
C129   C     0.86639   0.95297   0.30969   0.00000  Uiso   1.00
N130   N     0.86448   0.91894   0.35444   0.00000  Uiso   1.00
C131   C     0.87120   0.94410   0.41113   0.00000  Uiso   1.00
C132   C     0.87814   1.00662   0.42353   0.00000  Uiso   1.00
N133   N     0.88197   1.03981   0.37828   0.00000  Uiso   1.00
N134   N     0.87852   1.04875   0.27742   0.00000  Uiso   1.00
C135   C     0.86575   1.02581   0.22211   0.00000  Uiso   1.00
C136   C     0.84897   0.96646   0.21121   0.00000  Uiso   1.00
N137   N     0.85108   0.93097   0.25512   0.00000  Uiso   1.00
H138   H     0.86695   0.91692   0.44644   0.00000  Uiso   1.00
H139   H     0.86383   1.05562   0.18865   0.00000  Uiso   1.00
C140   C     0.30303   0.45306   0.61871   0.00000  Uiso   1.00
C141   C     0.29454   0.51776   0.63171   0.00000  Uiso   1.00
N142   N     0.30707   0.55123   0.58845   0.00000  Uiso   1.00
C143   C     0.32668   0.52302   0.53259   0.00000  Uiso   1.00
C144   C     0.33392   0.45819   0.51905   0.00000  Uiso   1.00
N145   N     0.32249   0.42489   0.56299   0.00000  Uiso   1.00
N146   N     0.28842   0.41948   0.66113   0.00000  Uiso   1.00
C147   C     0.26416   0.44762   0.71546   0.00000  Uiso   1.00
C148   C     0.25397   0.51235   0.72820   0.00000  Uiso   1.00
N149   N     0.26995   0.54600   0.68600   0.00000  Uiso   1.00
H150   H     0.33589   0.55103   0.49900   0.00000  Uiso   1.00
H151   H     0.25069   0.41971   0.74771   0.00000  Uiso   1.00
C152   C     0.20042   0.52154   0.13403   0.00000  Uiso   1.00
C153   C     0.25124   0.47877   0.11684   0.00000  Uiso   1.00
N154   N     0.26735   0.45929   0.05843   0.00000  Uiso   1.00
C155   C     0.23538   0.48140   1.01624   0.00000  Uiso   1.00
C156   C     0.18540   0.52580   1.03323   0.00000  Uiso   1.00
N157   N     0.16908   0.54443   0.09197   0.00000  Uiso   1.00
N158   N     0.18476   0.54160   0.19247   0.00000  Uiso   1.00
C159   C     0.21818   0.52150   0.23463   0.00000  Uiso   1.00
C160   C     0.26996   0.48011   0.21745   0.00000  Uiso   1.00
N161   N     0.28503   0.45941   0.15885   0.00000  Uiso   1.00
H162   H     0.25049   0.46659   0.97006   0.00000  Uiso   1.00
H163   H     0.20503   0.53846   0.28090   0.00000  Uiso   1.00
C164   C     0.12846   0.20355   0.46531   0.00000  Uiso   1.00
C165   C     0.09110   0.25008   0.50327   0.00000  Uiso   1.00
N166   N     0.10877   0.30663   0.51689   0.00000  Uiso   1.00
C167   C     0.16217   0.31841   0.49461   0.00000  Uiso   1.00
C168   C     0.20005   0.27101   0.45841   0.00000  Uiso   1.00
N169   N     0.18197   0.21490   0.44444   0.00000  Uiso   1.00
N170   N     0.11160   0.14697   0.45152   0.00000  Uiso   1.00
C171   C     0.05961   0.13411   0.47517   0.00000  Uiso   1.00
C172   C     1.02308   0.17951   0.51504   0.00000  Uiso   1.00
N173   N     0.03953   0.23684   0.52819   0.00000  Uiso   1.00
H174   H     0.17558   0.36359   0.50628   0.00000  Uiso   1.00
H175   H     0.04832   0.08781   0.46538   0.00000  Uiso   1.00
C176   C     1.03291   0.85665   0.72201   0.00000  Uiso   1.00
C177   C     0.05747   0.86969   0.77614   0.00000  Uiso   1.00
N178   N     0.06316   0.92863   0.79845   0.00000  Uiso   1.00
C179   C     0.04452   0.97570   0.76947   0.00000  Uiso   1.00
C180   C     1.01830   0.96345   0.71602   0.00000  Uiso   1.00
N181   N     1.01335   0.90391   0.69326   0.00000  Uiso   1.00
N182   N     1.02685   0.79721   0.70057   0.00000  Uiso   1.00
C183   C     1.04384   0.75039   0.73117   0.00000  Uiso   1.00
C184   C     0.06720   0.76392   0.78605   0.00000  Uiso   1.00
N185   N     0.07350   0.82340   0.80669   0.00000  Uiso   1.00
H186   H     0.04821   1.02241   0.78917   0.00000  Uiso   1.00
H187   H     1.03766   0.70363   0.71378   0.00000  Uiso   1.00
C188   C     1.01793   0.35291   0.81616   0.00000  Uiso   1.00
C189   C     0.96341   0.36207   0.79174   0.00000  Uiso   1.00
N190   N     0.93807   0.42042   0.78909   0.00000  Uiso   1.00
C191   C     0.96558   0.46996   0.80837   0.00000  Uiso   1.00
C192   C     1.02188   0.46028   0.82909   0.00000  Uiso   1.00
N193   N     1.04629   0.40198   0.83307   0.00000  Uiso   1.00
N194   N     0.04325   0.29494   0.81947   0.00000  Uiso   1.00
C195   C     1.01766   0.24528   0.79732   0.00000  Uiso   1.00
C196   C     0.96556   0.25389   0.76856   0.00000  Uiso   1.00
N197   N     0.93896   0.31232   0.76745   0.00000  Uiso   1.00
H198   H     0.94519   0.51597   0.80467   0.00000  Uiso   1.00
H199   H     0.03976   0.19949   0.79901   0.00000  Uiso   1.00
C200   C     0.80132   0.75608   1.01306   0.00000  Uiso   1.00
C201   C     0.83563   0.74634   1.06038   0.00000  Uiso   1.00
N202   N     0.80911   0.75593   0.11632   0.00000  Uiso   1.00
C203   C     0.75029   0.77656   0.12723   0.00000  Uiso   1.00
C204   C     0.71697   0.79066   0.08049   0.00000  Uiso   1.00
N205   N     0.74329   0.77936   1.02430   0.00000  Uiso   1.00
N206   N     0.82726   0.74529   0.95696   0.00000  Uiso   1.00
C207   C     0.88609   0.72581   0.94603   0.00000  Uiso   1.00
C208   C     0.92102   0.71880   0.99334   0.00000  Uiso   1.00
N209   N     0.89499   0.72898   1.04970   0.00000  Uiso   1.00
H210   H     0.73061   0.78610   0.17239   0.00000  Uiso   1.00
H211   H     0.90600   0.71788   0.90092   0.00000  Uiso   1.00
C212   C     0.53196   0.68099   0.32188   0.00000  Uiso   1.00
C213   C     0.55661   0.62544   0.28618   0.00000  Uiso   1.00
N214   N     0.59782   0.62645   0.24120   0.00000  Uiso   1.00
C215   C     0.61331   0.68068   0.22830   0.00000  Uiso   1.00
C216   C     0.58496   0.73667   0.26062   0.00000  Uiso   1.00
N217   N     0.54620   0.73525   0.30791   0.00000  Uiso   1.00
N218   N     0.48870   0.68029   0.36509   0.00000  Uiso   1.00
C219   C     0.46748   0.62702   0.37281   0.00000  Uiso   1.00
C220   C     0.48971   0.57226   0.33501   0.00000  Uiso   1.00
N221   N     0.53443   0.57251   0.29303   0.00000  Uiso   1.00
H222   H     0.64372   0.68026   0.19005   0.00000  Uiso   1.00
H223   H     0.43142   0.62785   0.40602   0.00000  Uiso   1.00
loop_
_geom_bond_atom_site_label_1
_geom_bond_atom_site_label_2
_geom_bond_distance
_geom_bond_site_symmetry_2
_ccdc_geom_bond_type
C0     C192    1.463   .     S
C0     O11     1.260   1_655 A
C0     O12     1.264   1_655 A
Sm1    O5      2.275   .     S
Sm1    O6      2.273   .     S
Sm1    O8      2.226   .     S
Sm1    O9      2.267   .     S
Sm1    O10     2.296   .     S
Sm1    O13     2.235   .     S
Sm2    O7      2.267   .     S
Sm2    O11     2.284   .     S
Sm2    O12     2.270   .     S
Sm2    O14     2.261   .     S
Sm2    O15     2.292   .     S
Sm2    O16     2.255   .     S
C3     O13     1.275   .     A
C3     O14     1.279   .     A
C3     C156    1.473   .     S
C4     O15     1.268   .     A
C4     O16     1.263   .     A
C4     C148    1.468   .     S
O5     C17     1.255   .     A
O6     C17     1.255   .     A
O7     C18     1.281   .     A
O8     C18     1.273   .     A
O9     C19     1.248   1_455 A
O10    C19     1.255   1_455 A
O11    C0      1.260   1_455 A
O12    C0      1.264   1_455 A
C17    C88     1.462   .     S
C18    C184    1.470   .     S
C19    C208    1.466   .     S
C19    O9      1.248   1_655 A
C19    O10     1.255   1_655 A
C20    O31     1.272   .     A
C20    O32     1.268   .     A
C20    C216    1.470   .     S
Sm21   O25     2.208   .     S
Sm21   O26     2.240   .     S
Sm21   O28     2.239   .     S
Sm21   O29     2.216   .     S
Sm21   O30     2.226   .     S
Sm21   O33     2.254   .     S
Sm22   O27     2.246   .     S
Sm22   O31     2.257   .     S
Sm22   O32     2.267   .     S
Sm22   O34     2.308   .     S
Sm22   O35     2.252   .     S
Sm22   O36     2.214   .     S
C23    O33     1.267   .     A
C23    O34     1.283   .     A
C23    C204    1.469   .     S
C24    O35     1.282   .     A
C24    O36     1.273   .     A
C24    C84     1.463   1_554 S
O25    C37     1.277   1_554 A
O26    C37     1.286   1_554 A
O27    C38     1.272   .     A
O28    C38     1.267   .     A
O29    C39     1.282   .     A
O30    C39     1.287   .     A
C37    C124    1.468   .     S
C37    O25     1.277   1_556 A
C37    O26     1.286   1_556 A
C38    C100    1.471   1_565 S
C39    C136    1.470   .     S
C40    O51     1.269   .     A
C40    O52     1.266   .     A
C40    C132    1.460   1_545 S
Sm41   O45     2.259   .     S
Sm41   O46     2.253   .     S
Sm41   O48     2.217   .     S
Sm41   O49     2.259   .     S
Sm41   O50     2.246   .     S
Sm41   O53     2.226   .     S
Sm42   O47     2.276   .     S
Sm42   O51     2.279   .     S
Sm42   O52     2.244   .     S
Sm42   O54     2.272   .     S
Sm42   O55     2.279   .     S
Sm42   O56     2.244   .     S
C43    O53     1.269   .     A
C43    O54     1.276   .     A
C43    C172    1.462   .     S
C44    O55     1.269   .     A
C44    O56     1.267   .     A
C44    C108    1.467   .     S
O45    C57     1.268   .     A
O46    C57     1.270   .     A
O47    C58     1.277   .     A
O48    C58     1.267   .     A
O49    C59     1.268   .     A
O50    C59     1.270   .     A
C57    C196    1.469   .     S
C58    C120    1.462   .     S
C59    C180    1.468   1_545 S
C60    O71     1.266   .     A
C60    O72     1.268   .     A
C60    C160    1.465   .     S
Sm61   O65     2.297   .     S
Sm61   O66     2.227   .     S
Sm61   O68     2.338   .     S
Sm61   O69     2.225   .     S
Sm61   O70     2.214   .     S
Sm61   O73     2.201   .     S
Sm62   O67     2.216   .     S
Sm62   O71     2.269   .     S
Sm62   O72     2.262   .     S
Sm62   O74     2.239   .     S
Sm62   O75     2.263   .     S
Sm62   O76     2.248   .     S
C63    O73     1.268   .     A
C63    O74     1.272   .     A
C63    C96     1.471   .     S
C64    O75     1.267   .     A
C64    O76     1.268   .     A
C64    C220    1.460   .     S
O65    C77     1.273   .     A
O66    C77     1.258   .     A
O67    C78     1.286   .     A
O68    C78     1.303   .     A
O69    C79     1.283   .     A
O70    C79     1.284   .     A
C77    C112    1.472   .     S
C78    C144    1.478   .     S
C79    C168    1.460   .     S
C80    C81     1.404   .     A
C80    N85     1.355   .     A
C80    N86     1.357   .     A
C81    N82     1.360   .     A
C81    N89     1.359   .     A
N82    C83     1.363   .     A
C83    C84     1.404   .     A
C83    H90     1.082   1_556 S
C84    N85     1.360   .     A
C84    C24     1.463   1_556 S
N86    C87     1.358   .     A
C87    C88     1.403   .     A
C87    H91     1.083   .     S
C88    N89     1.363   .     A
H90    C83     1.082   1_554 S
C92    C93     1.400   .     A
C92    N97     1.364   .     A
C92    N98     1.364   .     A
C93    N94     1.352   .     A
C93    N101    1.348   .     A
N94    C95     1.354   .     A
C95    C96     1.402   .     A
C95    H102    1.082   .     S
C96    N97     1.368   .     A
N98    C99     1.370   .     A
C99    C100    1.406   .     A
C99    H103    1.082   1_545 S
C100   N101    1.358   .     A
C100   C38     1.471   1_545 S
H103   C99     1.082   1_565 S
C104   C105    1.406   .     A
C104   N109    1.351   .     A
C104   N110    1.351   .     A
C105   N106    1.362   .     A
C105   N113    1.367   .     A
N106   C107    1.367   .     A
C107   C108    1.406   .     A
C107   H114    1.082   .     S
C108   N109    1.357   .     A
N110   C111    1.352   .     A
C111   C112    1.406   .     A
C111   H115    1.083   .     S
C112   N113    1.367   .     A
C116   C117    1.400   .     A
C116   N122    1.358   .     A
C116   N121    1.356   1_565 A
C117   N125    1.358   .     A
C117   N118    1.359   1_565 A
N118   C119    1.364   .     A
N118   C117    1.359   1_545 A
C119   C120    1.402   .     A
C119   H126    1.083   .     S
C120   N121    1.362   .     A
N121   C116    1.356   1_545 A
N122   C123    1.361   .     A
C123   C124    1.403   .     A
C123   H127    1.082   .     S
C124   N125    1.363   .     A
C128   C129    1.402   .     A
C128   N133    1.354   .     A
C128   N134    1.356   .     A
C129   N130    1.360   .     A
C129   N137    1.358   .     A
N130   C131    1.363   .     A
C131   C132    1.402   .     A
C131   H138    1.083   .     S
C132   N133    1.360   .     A
C132   C40     1.460   1_565 S
N134   C135    1.359   .     A
C135   C136    1.406   .     A
C135   H139    1.082   .     S
C136   N137    1.364   .     A
C140   C141    1.405   .     A
C140   N145    1.358   .     A
C140   N146    1.357   .     A
C141   N142    1.358   .     A
C141   N149    1.361   .     A
N142   C143    1.361   .     A
C143   C144    1.409   .     A
C143   H150    1.083   .     S
C144   N145    1.362   .     A
N146   C147    1.359   .     A
C147   C148    1.406   .     A
C147   H151    1.083   .     S
C148   N149    1.362   .     A
C152   C153    1.402   .     A
C152   N157    1.358   .     A
C152   N158    1.358   .     A
C153   N154    1.358   .     A
C153   N161    1.358   .     A
N154   C155    1.361   1_554 A
C155   C156    1.407   .     A
C155   H162    1.082   .     S
C155   N154    1.361   1_556 A
C156   N157    1.363   1_556 A
N157   C156    1.363   1_554 A
N158   C159    1.362   .     A
C159   C160    1.402   .     A
C159   H163    1.082   .     S
C160   N161    1.362   .     A
C164   C165    1.405   .     A
C164   N169    1.352   .     A
C164   N170    1.355   .     A
C165   N166    1.362   .     A
C165   N173    1.362   .     A
N166   C167    1.364   .     A
C167   C168    1.403   .     A
C167   H174    1.083   .     S
C168   N169    1.358   .     A
N170   C171    1.356   .     A
C171   H175    1.083   .     S
C171   C172    1.403   1_455 A
C172   C171    1.403   1_655 A
C172   N173    1.365   1_655 A
N173   C172    1.365   1_455 A
C176   N181    1.361   .     A
C176   N182    1.362   .     A
C176   C177    1.402   1_655 A
C177   N178    1.355   .     A
C177   N185    1.350   .     A
C177   C176    1.402   1_455 A
N178   C179    1.355   .     A
C179   H186    1.082   .     S
C179   C180    1.405   1_455 A
C180   N181    1.366   .     A
C180   C179    1.405   1_655 A
C180   C59     1.468   1_565 S
N182   C183    1.366   .     A
C183   H187    1.083   .     S
C183   C184    1.405   1_655 A
C184   N185    1.360   .     A
C184   C183    1.405   1_455 A
C188   C189    1.405   .     A
C188   N193    1.355   .     A
C188   N194    1.356   1_655 A
C189   N190    1.360   .     A
C189   N197    1.360   .     A
N190   C191    1.364   .     A
C191   C192    1.405   .     A
C191   H198    1.084   .     S
C192   N193    1.359   .     A
N194   C188    1.356   1_455 A
N194   C195    1.358   1_455 A
C195   C196    1.406   .     A
C195   N194    1.358   1_655 A
C195   H199    1.082   1_655 S
C196   N197    1.364   .     A
H199   C195    1.082   1_455 S
C200   C201    1.406   .     A
C200   N205    1.359   .     A
C200   N206    1.357   .     A
C201   N209    1.362   .     A
C201   N202    1.359   1_556 A
N202   C203    1.363   .     A
N202   C201    1.359   1_554 A
C203   C204    1.404   .     A
C203   H210    1.083   .     S
C204   N205    1.361   1_554 A
N205   C204    1.361   1_556 A
N206   C207    1.358   .     A
C207   C208    1.404   .     A
C207   H211    1.083   .     S
C208   N209    1.363   .     A
C212   C213    1.405   .     A
C212   N217    1.359   .     A
C212   N218    1.358   .     A
C213   N214    1.357   .     A
C213   N221    1.358   .     A
N214   C215    1.360   .     A
C215   C216    1.406   .     A
C215   H222    1.082   .     S
C216   N217    1.363   .     A
N218   C219    1.360   .     A
C219   C220    1.401   .     A
C219   H223    1.083   .     S
C220   N221    1.360   .     A
