data_lcy+N173+E8
_audit_creation_date              2025-01-21
_audit_creation_method            'Materials Studio'
_symmetry_space_group_name_H-M    'P1'
_symmetry_Int_Tables_number       1
_symmetry_cell_setting            triclinic
loop_
_symmetry_equiv_pos_as_xyz
  x,y,z
_cell_length_a                    22.7277
_cell_length_b                    22.9469
_cell_length_c                    21.8141
_cell_angle_alpha                 95.0069
_cell_angle_beta                  82.6469
_cell_angle_gamma                 100.9915
loop_
_atom_site_label
_atom_site_type_symbol
_atom_site_fract_x
_atom_site_fract_y
_atom_site_fract_z
_atom_site_U_iso_or_equiv
_atom_site_adp_type
_atom_site_occupancy
Gd0    Gd    0.12842   0.65568   0.82046   0.00000  Uiso   1.00
Gd1    Gd    0.13605   0.59410   0.89211   0.00000  Uiso   1.00
O2     O     0.06481   0.52878   0.85623   0.00000  Uiso   1.00
O3     O     0.05678   0.58356   0.78115   0.00000  Uiso   1.00
O4     O     0.19486   0.61670   0.75889   0.00000  Uiso   1.00
O5     O     0.20203   0.55148   0.82425   0.00000  Uiso   1.00
O6     O     0.06759   0.72380   0.82908   0.00000  Uiso   1.00
O7     O     0.12664   0.71839   0.74721   0.00000  Uiso   1.00
O8     O     0.20450   0.72090   0.85976   0.00000  Uiso   1.00
C9     C     0.08654   0.74430   0.77666   0.00000  Uiso   1.00
O10    O     0.21218   0.65728   0.92741   0.00000  Uiso   1.00
O11    O     0.06018   0.69386   0.88606   0.00000  Uiso   1.00
C12    C     0.21430   0.57170   0.77046   0.00000  Uiso   1.00
O13    O     0.06732   0.63487   0.95800   0.00000  Uiso   1.00
O14    O     0.13116   0.52604   0.95941   0.00000  Uiso   1.00
O15    O     0.19492   0.60395   0.97005   0.00000  Uiso   1.00
C16    C     0.04401   0.53397   0.80691   0.00000  Uiso   1.00
C17    C     0.17021   0.55462   0.99170   0.00000  Uiso   1.00
C18    C     0.04356   0.67538   0.93989   0.00000  Uiso   1.00
C19    C     0.23155   0.70637   0.90254   0.00000  Uiso   1.00
Gd20   Gd    0.65877   0.85145   0.09452   0.00000  Uiso   1.00
Gd21   Gd    0.58238   0.88889   0.15370   0.00000  Uiso   1.00
O22    O     0.52039   0.84645   0.08774   0.00000  Uiso   1.00
O23    O     0.59222   0.81233   0.02494   0.00000  Uiso   1.00
O24    O     0.63853   0.76831   0.14331   0.00000  Uiso   1.00
O25    O     0.56681   0.80379   0.20413   0.00000  Uiso   1.00
O26    O     0.74091   0.82943   0.03564   0.00000  Uiso   1.00
O27    O     0.69414   0.76450   0.09362   0.00000  Uiso   1.00
O28    O     0.71878   0.89190   0.16836   0.00000  Uiso   1.00
C29    C     0.74031   0.77978   0.05566   0.00000  Uiso   1.00
O30    O     0.64466   0.93017   0.22169   0.00000  Uiso   1.00
O31    O     0.68195   0.93255   0.04375   0.00000  Uiso   1.00
C32    C     0.59819   0.76290   0.18934   0.00000  Uiso   1.00
O33    O     0.60414   0.96784   0.09155   0.00000  Uiso   1.00
O34    O     0.50709   0.92803   0.20954   0.00000  Uiso   1.00
O35    O     0.56329  -0.02056   0.14139   0.00000  Uiso   1.00
C36    C     0.53692   0.81908   0.03746   0.00000  Uiso   1.00
C37    C     0.51955   0.97724   0.18432   0.00000  Uiso   1.00
C38    C     0.64816   0.97057   0.04829   0.00000  Uiso   1.00
C39    C     0.69795   0.91983   0.21713   0.00000  Uiso   1.00
Gd40   Gd    0.90041   0.08351   0.63211   0.00000  Uiso   1.00
Gd41   Gd    0.84105   0.14833   0.61631   0.00000  Uiso   1.00
O42    O     0.88432   0.21290   0.68250   0.00000  Uiso   1.00
O43    O     0.94749   0.15584   0.69812   0.00000  Uiso   1.00
O44    O     0.96526   0.11678   0.55596   0.00000  Uiso   1.00
O45    O     0.91432   0.18541   0.54056   0.00000  Uiso   1.00
O46    O     0.88251   1.01216   0.70161   0.00000  Uiso   1.00
O47    O     0.96376   0.02255   0.64286   0.00000  Uiso   1.00
O48    O     0.85456   0.01688   0.56271   0.00000  Uiso   1.00
C49    C     0.93128   0.99329   0.68466   0.00000  Uiso   1.00
O50    O     0.79685   0.08058   0.54877   0.00000  Uiso   1.00
O51    O     0.83423   0.05104   0.71076   0.00000  Uiso   1.00
C52    C     0.96160   0.16173   0.52876   0.00000  Uiso   1.00
O53    O     0.77511   0.11379   0.69750   0.00000  Uiso   1.00
O54    O     0.78353   0.21433   0.60327   0.00000  Uiso   1.00
O55    O     0.76822   0.13177   0.55231   0.00000  Uiso   1.00
C56    C     0.92888   0.20565   0.70762   0.00000  Uiso   1.00
C57    C     0.75240   0.18190   0.56530   0.00000  Uiso   1.00
C58    C     0.79018   0.07708   0.73070   0.00000  Uiso   1.00
C59    C     0.81376   0.03084   0.53477   0.00000  Uiso   1.00
Gd60   Gd    0.34023   0.37790   0.32229   0.00000  Uiso   1.00
Gd61   Gd    0.40954   0.36713   0.42629   0.00000  Uiso   1.00
O62    O     0.36295   0.43990   0.46389   0.00000  Uiso   1.00
O63    O     0.30155   0.44539   0.39097   0.00000  Uiso   1.00
O64    O     0.31214   0.33129   0.40480   0.00000  Uiso   1.00
O65    O     0.33857   0.30205   0.48198   0.00000  Uiso   1.00
O66    O     0.33093   0.42066   0.23927   0.00000  Uiso   1.00
O67    O     0.28042   0.44462   0.32610   0.00000  Uiso   1.00
O68    O     0.39577   0.30787   0.28276   0.00000  Uiso   1.00
C69    C     0.29378   0.45168   0.26784   0.00000  Uiso   1.00
O70    O     0.44243   0.29471   0.36511   0.00000  Uiso   1.00
O71    O     0.41844   0.45290   0.32008   0.00000  Uiso   1.00
C72    C     0.29545   0.30425   0.45259   0.00000  Uiso   1.00
O73    O     0.48133   0.43630   0.38259   0.00000  Uiso   1.00
O74    O     0.46964   0.36830   0.49923   0.00000  Uiso   1.00
O75    O     0.47469   0.30474   0.42264   0.00000  Uiso   1.00
C76    C     0.32093   0.46082   0.44452   0.00000  Uiso   1.00
C77    C     0.49478   0.32630   0.47338   0.00000  Uiso   1.00
C78    C     0.46591   0.46919   0.34617   0.00000  Uiso   1.00
C79    C     0.42931   0.28076   0.30951   0.00000  Uiso   1.00
C80    C     0.38318   0.78693  -0.01037   0.00000  Uiso   1.00
C81    C     0.39120   0.76265   0.92877   0.00000  Uiso   1.00
N82    N     0.44795   0.75677   0.90305   0.00000  Uiso   1.00
C83    C     0.49679   0.77353   0.93570   0.00000  Uiso   1.00
C84    C     0.48838   0.79740  -0.00284   0.00000  Uiso   1.00
N85    N     0.43146   0.80367   0.02169   0.00000  Uiso   1.00
N86    N     0.32690   0.79048   0.01716   0.00000  Uiso   1.00
C87    C     0.27769   0.77053   0.98672   0.00000  Uiso   1.00
C88    C     0.28463   0.74481   0.92610   0.00000  Uiso   1.00
N89    N     0.34160   0.74098   0.89860   0.00000  Uiso   1.00
H90    H     0.54114   0.76854   0.91364   0.00000  Uiso   1.00
H91    H     0.23327   0.77046   0.01155   0.00000  Uiso   1.00
C92    C     0.44020   0.12672   0.24831   0.00000  Uiso   1.00
C93    C     0.50199   0.13271   0.22763   0.00000  Uiso   1.00
N94    N     0.53809   0.18700   0.23209   0.00000  Uiso   1.00
C95    C     0.51528   0.23574   0.25657   0.00000  Uiso   1.00
C96    C     0.45340   0.23030   0.27634   0.00000  Uiso   1.00
N97    N     0.41722   0.17567   0.27201   0.00000  Uiso   1.00
N98    N     0.40490   0.07167   0.24690   0.00000  Uiso   1.00
C99    C     0.42870   0.02235   0.22600   0.00000  Uiso   1.00
C100   C     0.49046   0.02857   0.20473   0.00000  Uiso   1.00
N101   N     0.52541   0.08377   0.20589   0.00000  Uiso   1.00
H102   H     0.54517   0.27821   0.26151   0.00000  Uiso   1.00
H103   H     0.39977   0.97893   0.22541   0.00000  Uiso   1.00
C104   C     0.63744   0.26956   0.54404   0.00000  Uiso   1.00
C105   C     0.60807   0.23574   0.49627   0.00000  Uiso   1.00
N106   N     0.62605   0.18455   0.47238   0.00000  Uiso   1.00
C107   C     0.67238   0.16578   0.49376   0.00000  Uiso   1.00
C108   C     0.70252   0.20023   0.54067   0.00000  Uiso   1.00
N109   N     0.68409   0.25126   0.56489   0.00000  Uiso   1.00
N110   N     0.61872   0.32007   0.56881   0.00000  Uiso   1.00
C111   C     0.57212   0.33853   0.54757   0.00000  Uiso   1.00
C112   C     0.54335   0.30554   0.49894   0.00000  Uiso   1.00
N113   N     0.56207   0.25466   0.47449   0.00000  Uiso   1.00
H114   H     0.68551   0.12460   0.47407   0.00000  Uiso   1.00
H115   H     0.55825   0.37909   0.56771   0.00000  Uiso   1.00
C116   C     0.69054   1.05050   0.88032   0.00000  Uiso   1.00
C117   C     0.73492   0.05028   0.91966   0.00000  Uiso   1.00
N118   N     0.79389   0.06296   0.89776   0.00000  Uiso   1.00
C119   C     0.81100   0.07415   0.83771   0.00000  Uiso   1.00
C120   C     0.76733   0.07148   0.79674   0.00000  Uiso   1.00
N121   N     0.70752   0.06103   0.81913   0.00000  Uiso   1.00
N122   N     0.63143   1.03543   0.90315   0.00000  Uiso   1.00
C123   C     0.61510   1.01777   0.96220   0.00000  Uiso   1.00
C124   C     0.66001   1.01323   0.99960   0.00000  Uiso   1.00
N125   N     0.71866   1.03103   0.97727   0.00000  Uiso   1.00
H126   H     0.85877   0.08364   0.82171   0.00000  Uiso   1.00
H127   H     0.56794   1.00227   0.97744   0.00000  Uiso   1.00
C128   C     0.79082   0.96631   0.37646   0.00000  Uiso   1.00
C129   C     0.72765   0.95627   0.38055   0.00000  Uiso   1.00
N130   N     0.69490   0.96248   0.43643   0.00000  Uiso   1.00
C131   C     0.72249  -0.01987   0.48835   0.00000  Uiso   1.00
C132   C     0.78574  -0.00714   0.48452   0.00000  Uiso   1.00
N133   N     0.81862  -0.01475   0.42836   0.00000  Uiso   1.00
N134   N     0.82316   0.96025   0.32003   0.00000  Uiso   1.00
C135   C     0.79519   0.94487   0.26761   0.00000  Uiso   1.00
C136   C     0.73195   0.93663   0.27146   0.00000  Uiso   1.00
N137   N     0.70000   0.94225   0.32829   0.00000  Uiso   1.00
H138   H     0.69540  -0.01242   0.53183   0.00000  Uiso   1.00
H139   H     0.82205   0.94034   0.22347   0.00000  Uiso   1.00
C140   C     0.29956   0.53035   0.59747   0.00000  Uiso   1.00
C141   C     0.23678   0.51972   0.60887   0.00000  Uiso   1.00
N142   N     0.20303   0.50320   0.56094   0.00000  Uiso   1.00
C143   C     0.22954   0.49322   0.50230   0.00000  Uiso   1.00
C144   C     0.29261   0.49890   0.49184   0.00000  Uiso   1.00
N145   N     0.32574   0.51999   0.53956   0.00000  Uiso   1.00
N146   N     0.33344   0.54702   0.64511   0.00000  Uiso   1.00
C147   C     0.30703   0.55376   0.70426   0.00000  Uiso   1.00
C148   C     0.24400   0.54307   0.71622   0.00000  Uiso   1.00
N149   N     0.21062   0.52720   0.66762   0.00000  Uiso   1.00
H150   H     0.20122   0.47462   0.46654   0.00000  Uiso   1.00
H151   H     0.33482   0.57027   0.74085   0.00000  Uiso   1.00
C152   C     0.23383   0.54145   0.13840   0.00000  Uiso   1.00
C153   C     0.20631   0.48304   0.15172   0.00000  Uiso   1.00
N154   N     0.16641   0.45121   0.11503   0.00000  Uiso   1.00
C155   C     0.15369   0.47456   0.06440   0.00000  Uiso   1.00
C156   C     0.18300   0.53178   0.04871   0.00000  Uiso   1.00
N157   N     0.22181   0.56464   0.08688   0.00000  Uiso   1.00
N158   N     0.27488   0.57242   0.17502   0.00000  Uiso   1.00
C159   C     0.29123   0.54684   0.22277   0.00000  Uiso   1.00
C160   C     0.26547   0.48740   0.23361   0.00000  Uiso   1.00
N161   N     0.22346   0.45734   0.19814   0.00000  Uiso   1.00
H162   H     0.12175   0.44823   0.03570   0.00000  Uiso   1.00
H163   H     0.32648   0.57154   0.24907   0.00000  Uiso   1.00
C164   C     0.14075   0.21621   0.46235   0.00000  Uiso   1.00
C165   C     0.10708   0.25851   0.49138   0.00000  Uiso   1.00
N166   N     0.13632   0.31352   0.50923   0.00000  Uiso   1.00
C167   C     0.19765   0.32764   0.50053   0.00000  Uiso   1.00
C168   C     0.23135   0.28493   0.47332   0.00000  Uiso   1.00
N169   N     0.20203   0.23042   0.45387   0.00000  Uiso   1.00
N170   N     0.11168   0.16120   0.44464   0.00000  Uiso   1.00
C171   C     0.05076   0.14572   0.45726   0.00000  Uiso   1.00
C172   C     1.01712   0.18651   0.49032   0.00000  Uiso   1.00
N173   N     0.04641   0.24230   0.50598   0.00000  Uiso   1.00
H174   H     0.22040   0.37249   0.51159   0.00000  Uiso   1.00
H175   H     0.02926   0.09982   0.44805   0.00000  Uiso   1.00
C176   C     0.02600   0.88651   0.71018   0.00000  Uiso   1.00
C177   C     0.98819   0.84971   0.75274   0.00000  Uiso   1.00
N178   N     0.93168   0.86002   0.77211   0.00000  Uiso   1.00
C179   C     0.91136   0.90582   0.75114   0.00000  Uiso   1.00
C180   C     0.94959   0.94307   0.70913   0.00000  Uiso   1.00
N181   N     0.00585   0.93209   0.68945   0.00000  Uiso   1.00
N182   N     0.08205   0.87578   0.68980   0.00000  Uiso   1.00
C183   C     0.10200   0.82956   0.71008   0.00000  Uiso   1.00
C184   C     0.06478   0.79318   0.75320   0.00000  Uiso   1.00
N185   N     1.00855   0.80411   0.77372   0.00000  Uiso   1.00
H186   H     0.86594   0.91261   0.76695   0.00000  Uiso   1.00
H187   H     0.14667   0.82133   0.69335   0.00000  Uiso   1.00
C188   C     0.01651   0.37463   0.76544   0.00000  Uiso   1.00
C189   C     0.95443   0.36253   0.76259   0.00000  Uiso   1.00
N190   N     0.92291   0.40796   0.76791   0.00000  Uiso   1.00
C191   C     0.95078   0.46558   0.77711   0.00000  Uiso   1.00
C192   C     0.01325   0.47795   0.77983   0.00000  Uiso   1.00
N193   N     0.04421   0.43185   0.77444   0.00000  Uiso   1.00
N194   N     0.04796   0.32903   0.75925   0.00000  Uiso   1.00
C195   C     0.02002   0.27158   0.74779   0.00000  Uiso   1.00
C196   C     0.95821   0.25965   0.74147   0.00000  Uiso   1.00
N197   N     0.92711   0.30572   0.75078   0.00000  Uiso   1.00
H198   H     0.92403   0.50049   0.78526   0.00000  Uiso   1.00
H199   H     0.04606   0.23625   0.74002   0.00000  Uiso   1.00
C200   C     0.89716   0.75496   1.01568   0.00000  Uiso   1.00
C201   C     0.89025   0.69271   1.00985   0.00000  Uiso   1.00
N202   N     0.83414   0.65936   1.02156   0.00000  Uiso   1.00
C203   C     0.78468   0.68560   1.03756   0.00000  Uiso   1.00
C204   C     0.79143   0.74791   1.04056   0.00000  Uiso   1.00
N205   N     0.84786   0.78080   1.03032   0.00000  Uiso   1.00
N206   N     0.95258   0.78875   1.00323   0.00000  Uiso   1.00
C207   C     0.00161   0.76318   0.98464   0.00000  Uiso   1.00
C208   C    -0.00490   0.70099   0.97713   0.00000  Uiso   1.00
N209   N     0.93917   0.66702   0.98920   0.00000  Uiso   1.00
H210   H     0.74043   0.65834   1.04579   0.00000  Uiso   1.00
H211   H     0.04506   0.79101   0.97281   0.00000  Uiso   1.00
C212   C     0.52672   0.64379   0.29447   0.00000  Uiso   1.00
C213   C     0.56450   0.60145   0.27896   0.00000  Uiso   1.00
N214   N     0.61518   0.61507   0.23891   0.00000  Uiso   1.00
C215   C     0.62885   0.66806   0.21214   0.00000  Uiso   1.00
C216   C     0.58880   0.70893   0.22436   0.00000  Uiso   1.00
N217   N     0.53937   0.69616   0.26653   0.00000  Uiso   1.00
N218   N     0.47578   0.63018   0.33397   0.00000  Uiso   1.00
C219   C     0.45982   0.57564   0.35719   0.00000  Uiso   1.00
C220   C     0.49555   0.53167   0.33904   0.00000  Uiso   1.00
N221   N     0.54759   0.54598   0.30059   0.00000  Uiso   1.00
H222   H     0.66988   0.67718   0.18048   0.00000  Uiso   1.00
H223   H     0.41668   0.56496   0.38523   0.00000  Uiso   1.00
loop_
_geom_bond_atom_site_label_1
_geom_bond_atom_site_label_2
_geom_bond_distance
_geom_bond_site_symmetry_2
_ccdc_geom_bond_type
Gd0    O3      2.282   .     S
Gd0    O4      2.161   .     S
Gd0    O6      2.258   .     S
Gd0    O7      2.251   .     S
Gd0    O8      2.266   .     S
Gd0    O11     2.225   .     S
Gd1    O2      2.162   .     S
Gd1    O5      2.266   .     S
Gd1    O10     2.209   .     S
Gd1    O13     2.265   .     S
Gd1    O14     2.213   .     S
Gd1    O15     2.265   .     S
O2     C16     1.253   .     A
O3     C16     1.280   .     A
O4     C12     1.254   .     A
O5     C12     1.277   .     A
O6     C9      1.267   .     A
O7     C9      1.260   .     A
O8     C19     1.280   .     A
C9     C184    1.463   .     S
O10    C19     1.270   .     A
O11    C18     1.270   .     A
C12    C148    1.455   .     S
O13    C18     1.273   .     A
O14    C17     1.254   .     A
O15    C17     1.266   .     A
C16    C192    1.456   .     S
C17    C156    1.473   1_556 S
C18    C208    1.467   .     S
C19    C88     1.474   .     S
Gd20   O23     2.287   .     S
Gd20   O24     2.209   .     S
Gd20   O26     2.241   .     S
Gd20   O27     2.286   .     S
Gd20   O28     2.266   .     S
Gd20   O31     2.192   .     S
Gd21   O22     2.180   .     S
Gd21   O25     2.272   .     S
Gd21   O30     2.210   .     S
Gd21   O33     2.298   .     S
Gd21   O34     2.254   .     S
Gd21   O35     2.247   1_565 S
O22    C36     1.266   .     A
O23    C36     1.287   .     A
O24    C32     1.268   .     A
O25    C32     1.279   .     A
O26    C29     1.252   .     A
O27    C29     1.264   .     A
O28    C39     1.278   .     A
C29    C204    1.476   1_554 S
O30    C39     1.268   .     A
O31    C38     1.258   .     A
C32    C216    1.478   .     S
O33    C38     1.281   .     A
O34    C37     1.267   .     A
O35    Gd21    2.247   1_545 S
O35    C37     1.272   1_545 A
C36    C84     1.483   .     S
C37    O35     1.272   1_565 A
C37    C100    1.467   1_565 S
C38    C124    1.472   1_554 S
C39    C136    1.480   .     S
Gd40   O43     2.296   .     S
Gd40   O44     2.163   .     S
Gd40   O47     2.235   .     S
Gd40   O48     2.260   .     S
Gd40   O51     2.213   .     S
Gd40   O46     2.273   1_545 S
Gd41   O42     2.164   .     S
Gd41   O45     2.286   .     S
Gd41   O50     2.232   .     S
Gd41   O53     2.264   .     S
Gd41   O54     2.238   .     S
Gd41   O55     2.257   .     S
O42    C56     1.255   .     A
O43    C56     1.284   .     A
O44    C52     1.255   .     A
O45    C52     1.282   .     A
O46    C49     1.266   .     A
O46    Gd40    2.273   1_565 S
O47    C49     1.254   1_545 A
O48    C59     1.275   .     A
C49    C180    1.460   .     S
C49    O47     1.254   1_565 A
O50    C59     1.273   .     A
O51    C58     1.273   .     A
C52    C172    1.469   .     S
O53    C58     1.277   .     A
O54    C57     1.258   .     A
O55    C57     1.268   .     A
C56    C196    1.475   .     S
C57    C108    1.459   .     S
C58    C120    1.476   .     S
C59    C132    1.472   .     S
Gd60   O63     2.279   .     S
Gd60   O64     2.138   .     S
Gd60   O66     2.185   .     S
Gd60   O67     2.223   .     S
Gd60   O68     2.274   .     S
Gd60   O71     2.225   .     S
Gd61   O62     2.190   .     S
Gd61   O65     2.281   .     S
Gd61   O70     2.221   .     S
Gd61   O73     2.229   .     S
Gd61   O74     2.221   .     S
Gd61   O75     2.238   .     S
O62    C76     1.278   .     A
O63    C76     1.298   .     A
O64    C72     1.240   .     A
O65    C72     1.249   .     A
O66    C69     1.275   .     A
O67    C69     1.285   .     A
O68    C79     1.291   .     A
C69    C160    1.440   .     S
O70    C79     1.285   .     A
O71    C78     1.263   .     A
C72    C168    1.464   .     S
O73    C78     1.265   .     A
O74    C77     1.267   .     A
O75    C77     1.275   .     A
C76    C144    1.460   .     S
C77    C112    1.470   .     S
C78    C220    1.476   .     S
C79    C96     1.469   .     S
C80    N85     1.353   .     A
C80    N86     1.356   .     A
C80    C81     1.398   1_554 A
C81    N82     1.365   .     A
C81    N89     1.368   .     A
C81    C80     1.398   1_556 A
N82    C83     1.371   .     A
C83    H90     1.082   .     S
C83    C84     1.407   1_556 A
C84    N85     1.364   .     A
C84    C83     1.407   1_554 A
N86    C87     1.358   1_554 A
C87    C88     1.403   .     A
C87    N86     1.358   1_556 A
C87    H91     1.083   1_556 S
C88    N89     1.371   .     A
H91    C87     1.083   1_554 S
C92    C93     1.403   .     A
C92    N97     1.362   .     A
C92    N98     1.361   .     A
C93    N94     1.358   .     A
C93    N101    1.357   .     A
N94    C95     1.360   .     A
C95    C96     1.402   .     A
C95    H102    1.082   .     S
C96    N97     1.365   .     A
N98    C99     1.364   .     A
C99    C100    1.405   .     A
C99    H103    1.084   1_545 S
C100   N101    1.361   .     A
C100   C37     1.467   1_545 S
H103   C99     1.084   1_565 S
C104   C105    1.405   .     A
C104   N109    1.354   .     A
C104   N110    1.355   .     A
C105   N106    1.356   .     A
C105   N113    1.358   .     A
N106   C107    1.359   .     A
C107   C108    1.405   .     A
C107   H114    1.082   .     S
C108   N109    1.360   .     A
N110   C111    1.359   .     A
C111   C112    1.405   .     A
C111   H115    1.079   .     S
C112   N113    1.361   .     A
C116   N122    1.362   .     A
C116   C117    1.406   1_565 A
C116   N121    1.370   1_565 A
C117   N118    1.349   .     A
C117   C116    1.406   1_545 A
C117   N125    1.352   1_545 A
N118   C119    1.350   .     A
C119   C120    1.408   .     A
C119   H126    1.083   .     S
C120   N121    1.367   .     A
N121   C116    1.370   1_545 A
N122   C123    1.368   .     A
C123   C124    1.410   .     A
C123   H127    1.082   .     S
C124   N125    1.357   .     A
C124   C38     1.472   1_556 S
N125   C117    1.352   1_565 A
C128   C129    1.403   .     A
C128   N134    1.361   .     A
C128   N133    1.365   1_565 A
C129   N130    1.356   .     A
C129   N137    1.357   .     A
N130   C131    1.358   1_565 A
C131   C132    1.404   .     A
C131   H138    1.082   .     S
C131   N130    1.358   1_545 A
C132   N133    1.367   .     A
N133   C128    1.365   1_545 A
N134   C135    1.366   .     A
C135   C136    1.406   .     A
C135   H139    1.080   .     S
C136   N137    1.363   .     A
C140   C141    1.394   .     A
C140   N145    1.347   .     A
C140   N146    1.357   .     A
C141   N142    1.360   .     A
C141   N149    1.353   .     A
N142   C143    1.362   .     A
C143   C144    1.405   .     A
C143   H150    1.082   .     S
C144   N145    1.363   .     A
N146   C147    1.361   .     A
C147   C148    1.401   .     A
C147   H151    1.079   .     S
C148   N149    1.366   .     A
C152   C153    1.405   .     A
C152   N157    1.364   .     A
C152   N158    1.361   .     A
C153   N154    1.352   .     A
C153   N161    1.348   .     A
N154   C155    1.354   .     A
C155   C156    1.404   .     A
C155   H162    1.080   .     S
C156   N157    1.366   .     A
C156   C17     1.473   1_554 S
N158   C159    1.363   .     A
C159   C160    1.406   .     A
C159   H163    1.086   .     S
C160   N161    1.353   .     A
C164   C165    1.407   .     A
C164   N169    1.361   .     A
C164   N170    1.357   .     A
C165   N166    1.359   .     A
C165   N173    1.362   .     A
N166   C167    1.362   .     A
C167   C168    1.403   .     A
C167   H174    1.082   .     S
C168   N169    1.360   .     A
N170   C171    1.360   .     A
C171   H175    1.086   .     S
C171   C172    1.413   1_455 A
C172   C171    1.413   1_655 A
C172   N173    1.362   1_655 A
N173   C172    1.362   1_455 A
C176   N181    1.351   .     A
C176   N182    1.355   .     A
C176   C177    1.403   1_455 A
C177   N178    1.358   .     A
C177   N185    1.357   .     A
C177   C176    1.403   1_655 A
N178   C179    1.360   .     A
C179   C180    1.405   .     A
C179   H186    1.081   .     S
C180   N181    1.359   1_655 A
N181   C180    1.359   1_455 A
N182   C183    1.357   .     A
C183   C184    1.401   .     A
C183   H187    1.080   .     S
C184   N185    1.361   1_455 A
N185   C184    1.361   1_655 A
C188   N193    1.353   .     A
C188   N194    1.364   .     A
C188   C189    1.393   1_455 A
C189   N190    1.362   .     A
C189   N197    1.351   .     A
C189   C188    1.393   1_655 A
N190   C191    1.363   .     A
C191   H198    1.085   .     S
C191   C192    1.402   1_655 A
C192   N193    1.367   .     A
C192   C191    1.402   1_455 A
N194   C195    1.367   .     A
C195   H199    1.081   .     S
C195   C196    1.401   1_455 A
C196   N197    1.367   .     A
C196   C195    1.401   1_655 A
C200   C201    1.403   .     A
C200   N205    1.356   .     A
C200   N206    1.356   .     A
C201   N202    1.362   .     A
C201   N209    1.364   .     A
N202   C203    1.367   .     A
C203   C204    1.405   .     A
C203   H210    1.081   .     S
C204   N205    1.361   .     A
C204   C29     1.476   1_556 S
N206   C207    1.358   1_655 A
C207   C208    1.404   .     A
C207   H211    1.083   .     S
C207   N206    1.358   1_455 A
C208   N209    1.366   1_455 A
N209   C208    1.366   1_655 A
C212   C213    1.408   .     A
C212   N217    1.360   .     A
C212   N218    1.354   .     A
C213   N214    1.357   .     A
C213   N221    1.365   .     A
N214   C215    1.360   .     A
C215   C216    1.414   .     A
C215   H222    1.085   .     S
C216   N217    1.361   .     A
N218   C219    1.358   .     A
C219   C220    1.412   .     A
C219   H223    1.085   .     S
C220   N221    1.363   .     A
