data_lcy+N205+E9
_audit_creation_date              2025-01-21
_audit_creation_method            'Materials Studio'
_symmetry_space_group_name_H-M    'P1'
_symmetry_Int_Tables_number       1
_symmetry_cell_setting            triclinic
loop_
_symmetry_equiv_pos_as_xyz
  x,y,z
_cell_length_a                    34.1343
_cell_length_b                    33.5263
_cell_length_c                    33.4209
_cell_angle_alpha                 111.5453
_cell_angle_beta                  95.1150
_cell_angle_gamma                 92.5430
loop_
_atom_site_label
_atom_site_type_symbol
_atom_site_fract_x
_atom_site_fract_y
_atom_site_fract_z
_atom_site_U_iso_or_equiv
_atom_site_adp_type
_atom_site_occupancy
Y0     Y     0.15428   0.59808   0.89378   0.00000  Uiso   1.00
Y1     Y     0.09827   0.67478   0.84456   0.00000  Uiso   1.00
C2     C     0.03890   0.68347   0.89471   0.00000  Uiso   1.00
C3     C     0.08050   0.58031   0.83124   0.00000  Uiso   1.00
C4     C     0.17354   0.56974   0.95800   0.00000  Uiso   1.00
C5     C     0.19520   0.56955   0.82432   0.00000  Uiso   1.00
C6     C     0.17436   0.69118   0.91022   0.00000  Uiso   1.00
C7     C     0.09117   0.72552   0.79793   0.00000  Uiso   1.00
O8     O     0.07438   0.69604   0.91020   0.00000  Uiso   1.00
O9     O     0.03458   0.66721   0.85408   0.00000  Uiso   1.00
O10    O     0.09011   0.59342   0.87178   0.00000  Uiso   1.00
O11    O     0.09191   0.60252   0.80995   0.00000  Uiso   1.00
O12    O     0.19051   0.60268   0.95532   0.00000  Uiso   1.00
O13    O     0.14682   0.55112   0.92724   0.00000  Uiso   1.00
O14    O     0.17022   0.54616   0.83315   0.00000  Uiso   1.00
O15    O     0.19982   0.60743   0.85193   0.00000  Uiso   1.00
O16    O     0.16185   0.69221   0.87369   0.00000  Uiso   1.00
O17    O     0.15469   0.66920   0.92634   0.00000  Uiso   1.00
O18    O     0.08468   0.68510   0.78144   0.00000  Uiso   1.00
O19    O     0.10163   0.73929   0.83802   0.00000  Uiso   1.00
Y20    Y     0.56484   0.85486   0.17660   0.00000  Uiso   1.00
Y21    Y     0.64757   0.87853   0.06911   0.00000  Uiso   1.00
C22    C     0.70126   0.82039   0.06342   0.00000  Uiso   1.00
C23    C     0.63872   0.90908   0.16899   0.00000  Uiso   1.00
C24    C     0.55880   0.78952   0.20391   0.00000  Uiso   1.00
C25    C     0.52196   0.92262   0.20468   0.00000  Uiso   1.00
C26    C     0.56322   0.84498   0.07905   0.00000  Uiso   1.00
C27    C     0.66355   0.92280   0.01841   0.00000  Uiso   1.00
O28    O     0.66866   0.81168   0.03991   0.00000  Uiso   1.00
O29    O     0.70468   0.85787   0.09158   0.00000  Uiso   1.00
O30    O     0.62317   0.87099   0.15782   0.00000  Uiso   1.00
O31    O     0.65024   0.92162   0.14000   0.00000  Uiso   1.00
O32    O     0.53927   0.78956   0.16980   0.00000  Uiso   1.00
O33    O     0.58149   0.82339   0.22390   0.00000  Uiso   1.00
O34    O     0.55423   0.91949   0.22466   0.00000  Uiso   1.00
O35    O     0.51099   0.88985   0.17074   0.00000  Uiso   1.00
O36    O     0.58224   0.85765   0.05440   0.00000  Uiso   1.00
O37    O     0.58256   0.83924   0.11026   0.00000  Uiso   1.00
O38    O     0.67300   0.93725   0.05874   0.00000  Uiso   1.00
O39    O     0.64548   0.88603   0.00461   0.00000  Uiso   1.00
Y40    Y     0.90145   0.14953   0.56731   0.00000  Uiso   1.00
Y41    Y     0.87461   0.07556   0.66941   0.00000  Uiso   1.00
C42    C     0.93366   0.02288   0.66049   0.00000  Uiso   1.00
C43    C     0.85246   0.07023   0.57111   0.00000  Uiso   1.00
C44    C     0.97270   0.16701   0.54731   0.00000  Uiso   1.00
C45    C     0.83907   0.18706   0.54738   0.00000  Uiso   1.00
C46    C     0.90089   0.16403   0.66770   0.00000  Uiso   1.00
C47    C     0.82772   0.06468   0.72642   0.00000  Uiso   1.00
O48    O     0.93751   0.06206   0.68476   0.00000  Uiso   1.00
O49    O     0.90033   0.01183   0.63867   0.00000  Uiso   1.00
O50    O     0.88778   0.08556   0.57335   0.00000  Uiso   1.00
O51    O     0.84049   0.06378   0.60361   0.00000  Uiso   1.00
O52    O     0.95923   0.18899   0.58200   0.00000  Uiso   1.00
O53    O     0.94934   0.13528   0.52267   0.00000  Uiso   1.00
O54    O     0.86105   0.20323   0.58291   0.00000  Uiso   1.00
O55    O     0.85009   0.15223   0.52177   0.00000  Uiso   1.00
O56    O     0.89189   0.14726   0.69423   0.00000  Uiso   1.00
O57    O     0.90026   0.13882   0.62891   0.00000  Uiso   1.00
O58    O     0.81962   0.04717   0.68598   0.00000  Uiso   1.00
O59    O     0.85947   0.08833   0.73722   0.00000  Uiso   1.00
Y60    Y     0.39934   0.34386   0.44114   0.00000  Uiso   1.00
Y61    Y     0.37205   0.42139   0.33732   0.00000  Uiso   1.00
C62    C     0.43862   0.46432   0.33085   0.00000  Uiso   1.00
C63    C     0.36595   0.42876   0.43511   0.00000  Uiso   1.00
C64    C     0.47182   0.32438   0.46090   0.00000  Uiso   1.00
C65    C     0.33533   0.30907   0.46077   0.00000  Uiso   1.00
C66    C     0.38678   0.33127   0.33982   0.00000  Uiso   1.00
C67    C     0.31376   0.43859   0.28735   0.00000  Uiso   1.00
O68    O     0.42294   0.43013   0.30175   0.00000  Uiso   1.00
O69    O     0.42211   0.47422   0.36501   0.00000  Uiso   1.00
O70    O     0.39483   0.40531   0.42856   0.00000  Uiso   1.00
O71    O     0.35195   0.44051   0.40487   0.00000  Uiso   1.00
O72    O     0.44969   0.30212   0.42680   0.00000  Uiso   1.00
O73    O     0.45638   0.35701   0.48528   0.00000  Uiso   1.00
O74    O     0.35365   0.34436   0.48576   0.00000  Uiso   1.00
O75    O     0.35061   0.29139   0.42601   0.00000  Uiso   1.00
O76    O     0.37982   0.34956   0.31319   0.00000  Uiso   1.00
O77    O     0.38919   0.35483   0.37936   0.00000  Uiso   1.00
O78    O     0.32989   0.46559   0.32280   0.00000  Uiso   1.00
O79    O     0.32606   0.40191   0.27883   0.00000  Uiso   1.00
C80    C     0.44161   0.81545   0.04593   0.00000  Uiso   1.00
N81    N     0.46086   0.80318   0.07639   0.00000  Uiso   1.00
N82    N     0.49944   0.81393   0.08840   0.00000  Uiso   1.00
C83    C     0.52004   0.83743   0.07046   0.00000  Uiso   1.00
N84    N     0.50067   0.84990   0.04037   0.00000  Uiso   1.00
N85    N     0.46219   0.83924   0.02843   0.00000  Uiso   1.00
C86    C     0.40004   0.80056   0.02935   0.00000  Uiso   1.00
N87    N     0.38269   0.81019   0.99620   0.00000  Uiso   1.00
N88    N     0.34608   0.79428   0.97854   0.00000  Uiso   1.00
C89    C     0.32538   0.76810   0.99332   0.00000  Uiso   1.00
N90    N     0.34250   0.75884   0.02684   0.00000  Uiso   1.00
N91    N     0.37922   0.77470   0.04448   0.00000  Uiso   1.00
C92    C     0.28567   0.74902   0.97234   0.00000  Uiso   1.00
N93    N     0.26419   0.72410   0.98795   0.00000  Uiso   1.00
N94    N     0.22856   0.70612   0.96834   0.00000  Uiso   1.00
C95    C     0.21312   0.71225   0.93235   0.00000  Uiso   1.00
N96    N     0.23459   0.73714   0.91670   0.00000  Uiso   1.00
N97    N     0.27019   0.75526   0.93640   0.00000  Uiso   1.00
C98    C     0.40879   0.20140   0.29776   0.00000  Uiso   1.00
N99    N     0.40289   0.22102   0.26898   0.00000  Uiso   1.00
N100   N     0.39503   0.26219   0.28228   0.00000  Uiso   1.00
C101   C     0.39266   0.28514   0.32485   0.00000  Uiso   1.00
N102   N     0.39770   0.26520   0.35338   0.00000  Uiso   1.00
N103   N     0.40582   0.22416   0.34020   0.00000  Uiso   1.00
C104   C     0.42083   0.15728   0.28383   0.00000  Uiso   1.00
N105   N     0.43932   0.14311   0.31309   0.00000  Uiso   1.00
N106   N     0.45280   0.10423   0.30036   0.00000  Uiso   1.00
C107   C     0.44790   0.07787   0.25796   0.00000  Uiso   1.00
N108   N     0.42891   0.09176   0.22867   0.00000  Uiso   1.00
N109   N     0.41579   0.13091   0.24136   0.00000  Uiso   1.00
C110   C     0.46537   0.03636   0.24423   0.00000  Uiso   1.00
N111   N     0.45376   0.00488   0.20494   0.00000  Uiso   1.00
N112   N     0.47102   0.96796   0.19258   0.00000  Uiso   1.00
C113   C     0.50061   0.96148   0.21897   0.00000  Uiso   1.00
N114   N     0.51215   0.99297   0.25811   0.00000  Uiso   1.00
N115   N     0.49469   0.02960   0.27059   0.00000  Uiso   1.00
C116   C     0.73416   0.23622   0.52045   0.00000  Uiso   1.00
N117   N     0.74639   0.20033   0.49095   0.00000  Uiso   1.00
N118   N     0.78032   0.18527   0.49927   0.00000  Uiso   1.00
C119   C     0.80328   0.20560   0.53737   0.00000  Uiso   1.00
N120   N     0.79125   0.24168   0.56687   0.00000  Uiso   1.00
N121   N     0.75727   0.25679   0.55851   0.00000  Uiso   1.00
C122   C     0.69589   0.25136   0.51161   0.00000  Uiso   1.00
N123   N     0.68331   0.28765   0.54026   0.00000  Uiso   1.00
N124   N     0.64799   0.30043   0.53233   0.00000  Uiso   1.00
C125   C     0.62408   0.27732   0.49553   0.00000  Uiso   1.00
N126   N     0.63673   0.24112   0.46695   0.00000  Uiso   1.00
N127   N     0.67198   0.22838   0.47484   0.00000  Uiso   1.00
C128   C     0.58479   0.29043   0.48676   0.00000  Uiso   1.00
N129   N     0.56148   0.26664   0.44982   0.00000  Uiso   1.00
N130   N     0.52551   0.27769   0.44177   0.00000  Uiso   1.00
C131   C     0.51152   0.31291   0.47040   0.00000  Uiso   1.00
N132   N     0.53482   0.33690   0.50735   0.00000  Uiso   1.00
N133   N     0.57088   0.32581   0.51541   0.00000  Uiso   1.00
C134   C     0.76236   0.04090   0.81629   0.00000  Uiso   1.00
N135   N     0.79441   0.06996   0.82957   0.00000  Uiso   1.00
N136   N     0.81467   0.07814   0.80087   0.00000  Uiso   1.00
C137   C     0.80369   0.05762   0.75773   0.00000  Uiso   1.00
N138   N     0.77141   1.02889   0.74438   0.00000  Uiso   1.00
N139   N     0.75118   1.02064   0.77311   0.00000  Uiso   1.00
C140   C     0.74216   1.02911   0.84782   0.00000  Uiso   1.00
N141   N     0.71302   0.99663   0.83419   0.00000  Uiso   1.00
N142   N     0.69721   0.98307   0.86242   0.00000  Uiso   1.00
C143   C     0.70984   1.00154   0.90537   0.00000  Uiso   1.00
N144   N     0.73844   0.03462   0.91916   0.00000  Uiso   1.00
N145   N     0.75434   0.04812   0.89089   0.00000  Uiso   1.00
C146   C     0.69527   0.98335   0.93562   0.00000  Uiso   1.00
N147   N     0.70710   1.00176   0.97878   0.00000  Uiso   1.00
N148   N     0.69621   0.98309   0.00557   0.00000  Uiso   1.00
C149   C     0.67332   0.94529  -0.01003   0.00000  Uiso   1.00
N150   N     0.66125   0.92713   0.94694   0.00000  Uiso   1.00
N151   N     0.67198   0.94585   0.92024   0.00000  Uiso   1.00
C152   C     0.77405   0.03943   0.45839   0.00000  Uiso   1.00
N153   N     0.81180   0.05507   0.46004   0.00000  Uiso   1.00
N154   N     0.83677   0.06513   0.49599   0.00000  Uiso   1.00
C155   C     0.82472   0.06073   0.53185   0.00000  Uiso   1.00
N156   N     0.78708   1.04464   0.53002   0.00000  Uiso   1.00
N157   N     0.76224   1.03406   0.49393   0.00000  Uiso   1.00
C158   C     0.74702   1.02689   0.41821   0.00000  Uiso   1.00
N159   N     0.71423   0.99980   0.41162   0.00000  Uiso   1.00
N160   N     0.69121   0.98609   0.37398   0.00000  Uiso   1.00
C161   C     0.69982   0.99947   0.34179   0.00000  Uiso   1.00
N162   N     0.73219   0.02722   0.34874   0.00000  Uiso   1.00
N163   N     0.75540   0.04059   0.38618   0.00000  Uiso   1.00
C164   C     0.67761   0.98037   0.29845   0.00000  Uiso   1.00
N165   N     0.68500   0.99572   0.26728   0.00000  Uiso   1.00
N166   N     0.66982   0.97458   0.22632   0.00000  Uiso   1.00
C167   C     0.64672   0.93722   0.21488   0.00000  Uiso   1.00
N168   N     0.63853   0.92243   0.24624   0.00000  Uiso   1.00
N169   N     0.65344   0.94377   0.28731   0.00000  Uiso   1.00
C170   C     0.31583   0.46824   0.55200   0.00000  Uiso   1.00
N171   N     0.30097   0.47919   0.51877   0.00000  Uiso   1.00
N172   N     0.31651   0.46582   0.48131   0.00000  Uiso   1.00
C173   C     0.34764   0.44121   0.47575   0.00000  Uiso   1.00
N174   N     0.36302   0.43107   0.50932   0.00000  Uiso   1.00
N175   N     0.34714   0.44390   0.54661   0.00000  Uiso   1.00
C176   C     0.29876   0.48324   0.59335   0.00000  Uiso   1.00
N177   N     0.30341   0.46211   0.62099   0.00000  Uiso   1.00
N178   N     0.28770   0.47576   0.65837   0.00000  Uiso   1.00
C179   C     0.26741   0.51147   0.66978   0.00000  Uiso   1.00
N180   N     0.26296   0.53272   0.64225   0.00000  Uiso   1.00
N181   N     0.27808   0.51866   0.60459   0.00000  Uiso   1.00
C182   C     0.25008   0.52662   0.71090   0.00000  Uiso   1.00
N183   N     0.24767   0.56932   0.73281   0.00000  Uiso   1.00
N184   N     0.23104   0.58306   0.76960   0.00000  Uiso   1.00
C185   C     0.21573   0.55455   0.78541   0.00000  Uiso   1.00
N186   N     0.21808   0.51185   0.76348   0.00000  Uiso   1.00
N187   N     0.23528   0.49814   0.72706   0.00000  Uiso   1.00
C188   C     0.20092   0.52930   0.06052   0.00000  Uiso   1.00
N189   N     0.17784   0.50317   0.02428   0.00000  Uiso   1.00
N190   N     0.16902   0.51604   0.99155   0.00000  Uiso   1.00
C191   C     0.18334   0.55530   0.99369   0.00000  Uiso   1.00
N192   N     0.20649   0.58136   0.02984   0.00000  Uiso   1.00
N193   N     0.21502   0.56864   0.06269   0.00000  Uiso   1.00
C194   C     0.21127   0.51516   0.09641   0.00000  Uiso   1.00
N195   N     0.22882   0.54373   0.13496   0.00000  Uiso   1.00
N196   N     0.23975   0.53084   0.16716   0.00000  Uiso   1.00
C197   C     0.23378   0.48886   0.16201   0.00000  Uiso   1.00
N198   N     0.21610   0.46023   0.12349   0.00000  Uiso   1.00
N199   N     0.20482   0.47321   0.09136   0.00000  Uiso   1.00
C200   C     0.24930   0.47460   0.19636   0.00000  Uiso   1.00
N201   N     0.25436   0.43242   0.18787   0.00000  Uiso   1.00
N202   N     0.27314   0.42040   0.21777   0.00000  Uiso   1.00
C203   C     0.28711   0.45010   0.25732   0.00000  Uiso   1.00
N204   N     0.28114   0.49206   0.26610   0.00000  Uiso   1.00
N205   N     0.26263   0.50409   0.23617   0.00000  Uiso   1.00
C206   C     0.23033   0.25988   0.48694   0.00000  Uiso   1.00
N207   N     0.24618   0.23851   0.44985   0.00000  Uiso   1.00
N208   N     0.28001   0.25387   0.44179   0.00000  Uiso   1.00
C209   C     0.29920   0.29108   0.47054   0.00000  Uiso   1.00
N210   N     0.28351   0.31231   0.50771   0.00000  Uiso   1.00
N211   N     0.24971   0.29697   0.51576   0.00000  Uiso   1.00
C212   C     0.19235   0.24408   0.49539   0.00000  Uiso   1.00
N213   N     0.17652   0.26650   0.53210   0.00000  Uiso   1.00
N214   N     0.14173   0.25300   0.53969   0.00000  Uiso   1.00
C215   C     0.12134   0.21663   0.51085   0.00000  Uiso   1.00
N216   N     0.13711   0.19412   0.47403   0.00000  Uiso   1.00
N217   N     0.17202   0.20762   0.46645   0.00000  Uiso   1.00
C218   C     0.08286   0.20256   0.51977   0.00000  Uiso   1.00
N219   N     0.06073   0.16733   0.49092   0.00000  Uiso   1.00
N220   N     0.02560   0.15549   0.49952   0.00000  Uiso   1.00
C221   C     1.01151   0.17847   0.53730   0.00000  Uiso   1.00
N222   N     0.03370   0.21349   0.56604   0.00000  Uiso   1.00
N223   N     0.06867   0.22531   0.55746   0.00000  Uiso   1.00
C224   C     1.00909   0.93292   0.67300   0.00000  Uiso   1.00
N225   N     1.01785   0.97551   0.69677   0.00000  Uiso   1.00
N226   N     0.99516   0.00468   0.69085   0.00000  Uiso   1.00
C227   C     0.96293  -0.00769   0.66091   0.00000  Uiso   1.00
N228   N     0.95481   0.94988   0.63632   0.00000  Uiso   1.00
N229   N     0.97750   0.92073   0.64221   0.00000  Uiso   1.00
C230   C     1.02960   0.90041   0.68472   0.00000  Uiso   1.00
N231   N     1.01793   0.85791   0.66385   0.00000  Uiso   1.00
N232   N     1.03228   0.82878   0.67835   0.00000  Uiso   1.00
C233   C     0.05873   0.84107   0.71438   0.00000  Uiso   1.00
N234   N     0.07105   0.88346   0.73468   0.00000  Uiso   1.00
N235   N     1.05675   0.91258   0.72015   0.00000  Uiso   1.00
C236   C     0.07062   0.80991   0.73377   0.00000  Uiso   1.00
N237   N     0.09110   0.82387   0.77380   0.00000  Uiso   1.00
N238   N     0.09851   0.79658   0.79357   0.00000  Uiso   1.00
C239   C     0.08590   0.75425   0.77403   0.00000  Uiso   1.00
N240   N     0.06597   0.74002   0.73368   0.00000  Uiso   1.00
N241   N     0.05834   0.76742   0.71397   0.00000  Uiso   1.00
C242   C     0.01195   0.46301   0.77546   0.00000  Uiso   1.00
N243   N     0.02569   0.48253   0.74965   0.00000  Uiso   1.00
N244   N     0.04733   0.52029   0.76695   0.00000  Uiso   1.00
C245   C     0.05608   0.53946   0.81060   0.00000  Uiso   1.00
N246   N     0.04212   0.51993   0.83610   0.00000  Uiso   1.00
N247   N     0.02048   0.48249   0.81892   0.00000  Uiso   1.00
C248   C     0.98987   0.42057   0.75753   0.00000  Uiso   1.00
N249   N     0.97581   0.40317   0.78476   0.00000  Uiso   1.00
N250   N     0.95796   0.36359   0.76955   0.00000  Uiso   1.00
C251   C     0.95354   0.33985   0.72649   0.00000  Uiso   1.00
N252   N     0.96724   0.35735   0.69909   0.00000  Uiso   1.00
N253   N     0.98508   0.39708   0.71434   0.00000  Uiso   1.00
C254   C     0.93670   0.29508   0.71047   0.00000  Uiso   1.00
N255   N     0.93503   0.26981   0.66793   0.00000  Uiso   1.00
N256   N     0.92257   0.22828   0.65411   0.00000  Uiso   1.00
C257   C     0.91136   0.21047   0.68216   0.00000  Uiso   1.00
N258   N     0.91255   0.23588   0.72464   0.00000  Uiso   1.00
N259   N     0.92498   0.27743   0.73854   0.00000  Uiso   1.00
C260   C     0.79916   0.74983   0.03425   0.00000  Uiso   1.00
N261   N     0.80034   0.78445   0.07182   0.00000  Uiso   1.00
N262   N     0.76819   0.80530   0.08252   0.00000  Uiso   1.00
C263   C     0.73365   0.79219   0.05618   0.00000  Uiso   1.00
N264   N     0.73213   0.75679   0.01926   0.00000  Uiso   1.00
N265   N     0.76431   0.73598   0.00851   0.00000  Uiso   1.00
C266   C     0.83590   0.73184   0.01865   0.00000  Uiso   1.00
N267   N     0.83515   0.70116   0.97844   0.00000  Uiso   1.00
N268   N     0.86860   0.68923   0.96153   0.00000  Uiso   1.00
C269   C     0.90409   0.70752   0.98411   0.00000  Uiso   1.00
N270   N     0.90493   0.73752   0.02472   0.00000  Uiso   1.00
N271   N     0.87143   0.74950   0.04165   0.00000  Uiso   1.00
C272   C     0.94028   0.69824   0.96277   0.00000  Uiso   1.00
N273   N     0.97633   0.71649   0.98408   0.00000  Uiso   1.00
N274   N     1.00833   0.71103   0.96301   0.00000  Uiso   1.00
C275   C     0.00524   0.68737   0.91984   0.00000  Uiso   1.00
N276   N     0.96935   0.66879   0.89886   0.00000  Uiso   1.00
N277   N     0.93753   0.67408   0.91988   0.00000  Uiso   1.00
C278   C     0.54803   0.68688   0.24589   0.00000  Uiso   1.00
N279   N     0.56524   0.72581   0.27328   0.00000  Uiso   1.00
N280   N     0.56910   0.75849   0.25982   0.00000  Uiso   1.00
C281   C     0.55540   0.75353   0.21870   0.00000  Uiso   1.00
N282   N     0.53808   0.71470   0.19143   0.00000  Uiso   1.00
N283   N     0.53461   0.68196   0.20472   0.00000  Uiso   1.00
C284   C     0.54212   0.65107   0.26070   0.00000  Uiso   1.00
N285   N     0.53051   0.61089   0.23153   0.00000  Uiso   1.00
N286   N     0.52180   0.57891   0.24468   0.00000  Uiso   1.00
C287   C     0.52419   0.58588   0.28752   0.00000  Uiso   1.00
N288   N     0.53634   0.62595   0.31677   0.00000  Uiso   1.00
N289   N     0.54536   0.65793   0.30358   0.00000  Uiso   1.00
C290   C     0.50895   0.55193   0.30145   0.00000  Uiso   1.00
N291   N     0.49995   0.56150   0.34257   0.00000  Uiso   1.00
N292   N     0.47996   0.53236   0.35311   0.00000  Uiso   1.00
C293   C     0.46857   0.49251   0.32298   0.00000  Uiso   1.00
N294   N     0.47873   0.48259   0.28231   0.00000  Uiso   1.00
N295   N     0.49854   0.51171   0.27174   0.00000  Uiso   1.00
loop_
_geom_bond_atom_site_label_1
_geom_bond_atom_site_label_2
_geom_bond_distance
_geom_bond_site_symmetry_2
_ccdc_geom_bond_type
Y0     O10     2.228   .     S
Y0     O12     2.254   .     S
Y0     O13     2.258   .     S
Y0     O14     2.263   .     S
Y0     O15     2.267   .     S
Y0     O17     2.227   .     S
Y1     O8      2.282   .     S
Y1     O9      2.242   .     S
Y1     O11     2.259   .     S
Y1     O16     2.257   .     S
Y1     O18     2.272   .     S
Y1     O19     2.251   .     S
C2     O8      1.263   .     A
C2     O9      1.255   .     A
C2     C275    1.465   .     S
C3     O10     1.268   .     A
C3     O11     1.275   .     A
C3     C245    1.466   .     S
C4     O12     1.260   .     A
C4     O13     1.261   .     A
C4     C191    1.462   .     S
C5     O14     1.259   .     A
C5     O15     1.259   .     A
C5     C185    1.466   .     S
C6     O16     1.270   .     A
C6     O17     1.263   .     A
C6     C95     1.468   .     S
C7     O18     1.262   .     A
C7     O19     1.258   .     A
C7     C239    1.467   .     S
Y20    O30     2.242   .     S
Y20    O32     2.244   .     S
Y20    O33     2.248   .     S
Y20    O34     2.241   .     S
Y20    O35     2.256   .     S
Y20    O37     2.230   .     S
Y21    O28     2.271   .     S
Y21    O29     2.255   .     S
Y21    O31     2.268   .     S
Y21    O36     2.262   .     S
Y21    O38     2.270   .     S
Y21    O39     2.256   .     S
C22    O28     1.260   .     A
C22    O29     1.256   .     A
C22    C263    1.465   .     S
C23    O30     1.268   .     A
C23    O31     1.274   .     A
C23    C167    1.468   .     S
C24    O32     1.269   .     A
C24    O33     1.268   .     A
C24    C281    1.466   .     S
C25    O34     1.265   .     A
C25    O35     1.267   .     A
C25    C113    1.465   .     S
C26    O36     1.268   .     A
C26    O37     1.264   .     A
C26    C83     1.469   .     S
C27    O38     1.259   .     A
C27    O39     1.256   .     A
C27    C149    1.464   .     S
Y40    O50     2.259   .     S
Y40    O52     2.236   .     S
Y40    O53     2.260   .     S
Y40    O54     2.253   .     S
Y40    O55     2.245   .     S
Y40    O57     2.219   .     S
Y41    O48     2.267   .     S
Y41    O49     2.260   .     S
Y41    O51     2.283   .     S
Y41    O56     2.267   .     S
Y41    O58     2.269   .     S
Y41    O59     2.259   .     S
C42    O48     1.258   .     A
C42    O49     1.257   .     A
C42    C227    1.466   .     S
C43    O50     1.274   .     A
C43    O51     1.279   .     A
C43    C155    1.471   .     S
C44    O52     1.263   .     A
C44    O53     1.269   .     A
C44    C221    1.464   .     S
C45    O54     1.265   .     A
C45    O55     1.265   .     A
C45    C119    1.462   .     S
C46    O56     1.263   .     A
C46    O57     1.258   .     A
C46    C257    1.467   .     S
C47    O58     1.258   .     A
C47    O59     1.256   .     A
C47    C137    1.463   .     S
Y60    O70     2.258   .     S
Y60    O72     2.238   .     S
Y60    O73     2.257   .     S
Y60    O74     2.248   .     S
Y60    O75     2.248   .     S
Y60    O77     2.227   .     S
Y61    O68     2.257   .     S
Y61    O69     2.271   .     S
Y61    O71     2.287   .     S
Y61    O76     2.278   .     S
Y61    O78     2.257   .     S
Y61    O79     2.266   .     S
C62    O68     1.257   .     A
C62    O69     1.259   .     A
C62    C293    1.467   .     S
C63    O70     1.272   .     A
C63    O71     1.276   .     A
C63    C173    1.472   .     S
C64    O72     1.264   .     A
C64    O73     1.269   .     A
C64    C131    1.464   .     S
C65    O74     1.266   .     A
C65    O75     1.266   .     A
C65    C209    1.463   .     S
C66    O76     1.265   .     A
C66    O77     1.259   .     A
C66    C101    1.470   .     S
C67    O78     1.256   .     A
C67    O79     1.257   .     A
C67    C203    1.462   .     S
C80    N81     1.360   .     A
C80    N85     1.356   .     A
C80    C86     1.471   .     S
N81    N82     1.335   .     A
N82    C83     1.359   .     A
C83    N84     1.356   .     A
N84    N85     1.331   .     A
C86    N91     1.358   .     A
C86    N87     1.358   1_554 A
N87    N88     1.331   .     A
N87    C86     1.358   1_556 A
N88    C89     1.356   .     A
C89    C92     1.470   .     S
C89    N90     1.359   1_556 A
N90    N91     1.334   .     A
N90    C89     1.359   1_554 A
C92    N93     1.357   .     A
C92    N97     1.359   .     A
N93    N94     1.332   .     A
N94    C95     1.358   .     A
C95    N96     1.357   .     A
N96    N97     1.333   .     A
C98    N99     1.357   .     A
C98    N103    1.357   .     A
C98    C104    1.468   .     S
N99    N100    1.333   .     A
N100   C101    1.358   .     A
C101   N102    1.354   .     A
N102   N103    1.332   .     A
C104   N105    1.356   .     A
C104   N109    1.359   .     A
N105   N106    1.331   .     A
N106   C107    1.357   .     A
C107   N108    1.358   .     A
C107   C110    1.468   .     S
N108   N109    1.334   .     A
C110   N111    1.359   .     A
C110   N115    1.356   .     A
N111   N112    1.335   1_545 A
N112   C113    1.359   .     A
N112   N111    1.335   1_565 A
C113   N114    1.356   .     A
N114   N115    1.331   1_565 A
N115   N114    1.331   1_545 A
C116   N117    1.357   .     A
C116   N121    1.358   .     A
C116   C122    1.467   .     S
N117   N118    1.331   .     A
N118   C119    1.356   .     A
C119   N120    1.358   .     A
N120   N121    1.333   .     A
C122   N123    1.358   .     A
C122   N127    1.356   .     A
N123   N124    1.334   .     A
N124   C125    1.358   .     A
C125   N126    1.357   .     A
C125   C128    1.468   .     S
N126   N127    1.331   .     A
C128   N129    1.356   .     A
C128   N133    1.359   .     A
N129   N130    1.331   .     A
N130   C131    1.356   .     A
C131   N132    1.357   .     A
N132   N133    1.335   .     A
C134   N135    1.358   .     A
C134   N139    1.360   1_545 A
C134   C140    1.467   1_545 S
N135   N136    1.330   .     A
N136   C137    1.358   .     A
C137   N138    1.358   1_545 A
N138   N139    1.331   .     A
N138   C137    1.358   1_565 A
N139   C134    1.360   1_565 A
C140   N141    1.357   .     A
C140   C134    1.467   1_565 S
C140   N145    1.359   1_565 A
N141   N142    1.331   .     A
N142   C143    1.358   .     A
C143   C146    1.469   .     S
C143   N144    1.358   1_565 A
N144   N145    1.333   .     A
N144   C143    1.358   1_545 A
N145   C140    1.359   1_545 A
C146   N147    1.358   .     A
C146   N151    1.356   .     A
N147   N148    1.335   1_556 A
N148   C149    1.357   .     A
N148   N147    1.335   1_554 A
C149   N150    1.356   1_554 A
N150   N151    1.332   .     A
N150   C149    1.356   1_556 A
C152   N153    1.358   .     A
C152   N157    1.357   1_545 A
C152   C158    1.470   1_545 S
N153   N154    1.333   .     A
N154   C155    1.356   .     A
C155   N156    1.359   1_545 A
N156   N157    1.333   .     A
N156   C155    1.359   1_565 A
N157   C152    1.357   1_565 A
C158   N159    1.358   .     A
C158   C152    1.470   1_565 S
C158   N163    1.357   1_565 A
N159   N160    1.334   .     A
N160   C161    1.358   .     A
C161   C164    1.470   .     S
C161   N162    1.358   1_565 A
N162   N163    1.332   .     A
N162   C161    1.358   1_545 A
N163   C158    1.357   1_545 A
C164   N165    1.357   .     A
C164   N169    1.358   .     A
N165   N166    1.331   .     A
N166   C167    1.358   .     A
C167   N168    1.358   .     A
N168   N169    1.333   .     A
C170   N171    1.357   .     A
C170   N175    1.358   .     A
C170   C176    1.470   .     S
N171   N172    1.333   .     A
N172   C173    1.358   .     A
C173   N174    1.357   .     A
N174   N175    1.334   .     A
C176   N177    1.358   .     A
C176   N181    1.358   .     A
N177   N178    1.334   .     A
N178   C179    1.358   .     A
C179   N180    1.358   .     A
C179   C182    1.468   .     S
N180   N181    1.332   .     A
C182   N183    1.358   .     A
C182   N187    1.358   .     A
N183   N184    1.333   .     A
N184   C185    1.357   .     A
C185   N186    1.357   .     A
N186   N187    1.333   .     A
C188   N189    1.358   .     A
C188   N193    1.358   .     A
C188   C194    1.465   .     S
N189   N190    1.332   1_554 A
N190   C191    1.358   .     A
N190   N189    1.332   1_556 A
C191   N192    1.357   1_556 A
N192   N193    1.330   .     A
N192   C191    1.357   1_554 A
C194   N195    1.357   .     A
C194   N199    1.359   .     A
N195   N196    1.330   .     A
N196   C197    1.357   .     A
C197   N198    1.358   .     A
C197   C200    1.465   .     S
N198   N199    1.332   .     A
C200   N201    1.358   .     A
C200   N205    1.357   .     A
N201   N202    1.333   .     A
N202   C203    1.358   .     A
C203   N204    1.356   .     A
N204   N205    1.330   .     A
C206   N207    1.358   .     A
C206   N211    1.358   .     A
C206   C212    1.468   .     S
N207   N208    1.333   .     A
N208   C209    1.358   .     A
C209   N210    1.356   .     A
N210   N211    1.331   .     A
C212   N213    1.356   .     A
C212   N217    1.359   .     A
N213   N214    1.330   .     A
N214   C215    1.357   .     A
C215   N216    1.358   .     A
C215   C218    1.468   .     S
N216   N217    1.334   .     A
C218   N219    1.360   .     A
C218   N223    1.356   .     A
N219   N220    1.335   .     A
N220   C221    1.359   1_455 A
C221   N220    1.359   1_655 A
C221   N222    1.356   1_655 A
N222   N223    1.329   .     A
N222   C221    1.356   1_455 A
C224   N225    1.359   .     A
C224   N229    1.358   .     A
C224   C230    1.471   .     S
N225   N226    1.333   1_565 A
N226   C227    1.357   .     A
N226   N225    1.333   1_545 A
C227   N228    1.357   1_545 A
N228   N229    1.332   .     A
N228   C227    1.357   1_565 A
C230   N231    1.358   .     A
C230   N235    1.358   .     A
N231   N232    1.333   .     A
N232   C233    1.358   1_655 A
C233   N234    1.358   .     A
C233   C236    1.471   .     S
C233   N232    1.358   1_455 A
N234   N235    1.332   1_455 A
N235   N234    1.332   1_655 A
C236   N237    1.357   .     A
C236   N241    1.359   .     A
N237   N238    1.331   .     A
N238   C239    1.357   .     A
C239   N240    1.358   .     A
N240   N241    1.334   .     A
C242   N243    1.361   .     A
C242   N247    1.354   .     A
C242   C248    1.466   1_455 S
N243   N244    1.336   .     A
N244   C245    1.359   .     A
C245   N246    1.356   .     A
N246   N247    1.328   .     A
C248   N249    1.357   .     A
C248   N253    1.357   .     A
C248   C242    1.466   1_655 S
N249   N250    1.330   .     A
N250   C251    1.355   .     A
C251   N252    1.359   .     A
C251   C254    1.466   .     S
N252   N253    1.334   .     A
C254   N255    1.356   .     A
C254   N259    1.358   .     A
N255   N256    1.332   .     A
N256   C257    1.355   .     A
C257   N258    1.357   .     A
N258   N259    1.332   .     A
C260   N261    1.357   .     A
C260   N265    1.359   .     A
C260   C266    1.470   .     S
N261   N262    1.332   .     A
N262   C263    1.357   .     A
C263   N264    1.357   .     A
N264   N265    1.333   .     A
C266   N271    1.359   .     A
C266   N267    1.357   1_554 A
N267   N268    1.331   .     A
N267   C266    1.357   1_556 A
N268   C269    1.358   .     A
C269   C272    1.469   .     S
C269   N270    1.358   1_556 A
N270   N271    1.334   .     A
N270   C269    1.358   1_554 A
C272   N273    1.361   .     A
C272   N277    1.355   .     A
N273   N274    1.335   .     A
N274   C275    1.359   1_655 A
C275   N274    1.359   1_455 A
C275   N276    1.356   1_455 A
N276   N277    1.329   .     A
N276   C275    1.356   1_655 A
C278   N279    1.358   .     A
C278   N283    1.358   .     A
C278   C284    1.470   .     S
N279   N280    1.334   .     A
N280   C281    1.359   .     A
C281   N282    1.356   .     A
N282   N283    1.332   .     A
C284   N285    1.357   .     A
C284   N289    1.359   .     A
N285   N286    1.331   .     A
N286   C287    1.357   .     A
C287   N288    1.359   .     A
C287   C290    1.471   .     S
N288   N289    1.334   .     A
C290   N291    1.359   .     A
C290   N295    1.357   .     A
N291   N292    1.335   .     A
N292   C293    1.359   .     A
C293   N294    1.356   .     A
N294   N295    1.331   .     A
