data_lcy+N155+E70
_audit_creation_date              2025-01-21
_audit_creation_method            'Materials Studio'
_symmetry_space_group_name_H-M    'P1'
_symmetry_Int_Tables_number       1
_symmetry_cell_setting            triclinic
loop_
_symmetry_equiv_pos_as_xyz
  x,y,z
_cell_length_a                    16.9531
_cell_length_b                    16.5339
_cell_length_c                    17.7350
_cell_angle_alpha                 94.3136
_cell_angle_beta                  101.2677
_cell_angle_gamma                 98.4684
loop_
_atom_site_label
_atom_site_type_symbol
_atom_site_fract_x
_atom_site_fract_y
_atom_site_fract_z
_atom_site_U_iso_or_equiv
_atom_site_adp_type
_atom_site_occupancy
C0     C     0.20588   0.40965   0.77768   0.00000  Uiso   1.00
Ho1    Ho    0.18166   0.55561   0.83278   0.00000  Uiso   1.00
C2     C     0.96764   0.70129   0.00734   0.00000  Uiso   1.00
Ho3    Ho    0.06423   0.63963   0.93245   0.00000  Uiso   1.00
O4     O     0.15175   0.44712   0.74632   0.00000  Uiso   1.00
O5     O     0.24014   0.44356   0.84374   0.00000  Uiso   1.00
O6     O     0.05836   0.48747   0.77019   0.00000  Uiso   1.00
O7     O     0.08079   0.51407   0.88832   0.00000  Uiso   1.00
C8     C     0.03196   0.46771   0.82556   0.00000  Uiso   1.00
C9     C     0.22834   0.69399   0.95612   0.00000  Uiso   1.00
O10    O     0.16524   0.50516   0.94933   0.00000  Uiso   1.00
O11    O     0.13256   0.59764   1.03408   0.00000  Uiso   1.00
O12    O     0.02955   0.74509  -0.00925   0.00000  Uiso   1.00
O13    O     0.95739   0.62500   0.98342   0.00000  Uiso   1.00
O14    O     0.18998   0.69121   1.00670   0.00000  Uiso   1.00
O15    O     0.17560   0.67487   0.88761   0.00000  Uiso   1.00
O16    O     0.00799   0.67541   0.82137   0.00000  Uiso   1.00
O17    O     0.12335   0.66019   0.78236   0.00000  Uiso   1.00
C18    C     0.05969   0.69572   0.78018   0.00000  Uiso   1.00
C19    C     0.16348   0.53334   1.02082   0.00000  Uiso   1.00
C20    C     0.57451   0.80287   0.27560   0.00000  Uiso   1.00
Ho21   Ho    0.60519   0.88130   0.16388   0.00000  Uiso   1.00
C22    C     0.64146  -0.02532   0.86884   0.00000  Uiso   1.00
Ho23   Ho    0.63370   0.93493   0.00701   0.00000  Uiso   1.00
O24    O     0.51967   0.80762   0.21635   0.00000  Uiso   1.00
O25    O     0.64249   0.85119   0.28116   0.00000  Uiso   1.00
O26    O     0.57252   0.76098   0.09207   0.00000  Uiso   1.00
O27    O     0.53293   0.86816   0.05007   0.00000  Uiso   1.00
C28    C     0.52418   0.78408   1.04201   0.00000  Uiso   1.00
C29    C     0.72542   1.02287   0.14042   0.00000  Uiso   1.00
O30    O     0.54955   0.99658   0.16283   0.00000  Uiso   1.00
O31    O     0.56270   1.02703   0.03982   0.00000  Uiso   1.00
O32    O     0.70137  -0.00505  -0.07319   0.00000  Uiso   1.00
O33    O     0.57885   0.93390   0.88554   0.00000  Uiso   1.00
O34    O     0.70191   1.05176   0.08187   0.00000  Uiso   1.00
O35    O     0.70606   0.94114   0.12526   0.00000  Uiso   1.00
O36    O     0.70588   0.83375   0.01284   0.00000  Uiso   1.00
O37    O     0.68423   0.79202   0.12946   0.00000  Uiso   1.00
C38    C     0.72437   0.79444   0.07311   0.00000  Uiso   1.00
C39    C     0.54091   1.04219   0.10512   0.00000  Uiso   1.00
C40    C     0.75782   0.31169   0.53036   0.00000  Uiso   1.00
Ho41   Ho    0.84270   0.19621   0.55396   0.00000  Uiso   1.00
C42    C     0.00338   0.95194   0.66588   0.00000  Uiso   1.00
Ho43   Ho    0.92435   0.06308   0.60443   0.00000  Uiso   1.00
O44    O     0.75408   0.25209   0.47819   0.00000  Uiso   1.00
O45    O     0.81561   0.31593   0.58923   0.00000  Uiso   1.00
O46    O     0.76648   0.16795   0.44033   0.00000  Uiso   1.00
O47    O     0.84550   0.07914   0.48989   0.00000  Uiso   1.00
C48    C     0.79591   0.10669   0.42434   0.00000  Uiso   1.00
C49    C     0.97376   0.17971   0.72250   0.00000  Uiso   1.00
O50    O     0.95328   0.22678   0.50334   0.00000  Uiso   1.00
O51    O     1.01822   0.12044   0.54787   0.00000  Uiso   1.00
O52    O     0.00724   0.02417   0.69923   0.00000  Uiso   1.00
O53    O     0.95639   0.93850   0.59867   0.00000  Uiso   1.00
O54    O     0.99656   0.11251   0.72432   0.00000  Uiso   1.00
O55    O     0.92328   0.18277   0.65322   0.00000  Uiso   1.00
O56    O     0.81643   0.03037   0.65409   0.00000  Uiso   1.00
O57    O     0.74848   0.13260   0.60968   0.00000  Uiso   1.00
C58    C     0.75575   0.07017   0.64929   0.00000  Uiso   1.00
C59    C     1.01007   0.18029   0.50507   0.00000  Uiso   1.00
C60    C     0.42507   0.26738   0.21845   0.00000  Uiso   1.00
Ho61   Ho    0.37113   0.35724   0.31689   0.00000  Uiso   1.00
C62    C     0.29880   0.38481   0.55638   0.00000  Uiso   1.00
Ho63   Ho    0.31893   0.47401   0.44485   0.00000  Uiso   1.00
O64    O     0.46288   0.28668   0.28860   0.00000  Uiso   1.00
O65    O     0.35959   0.29698   0.20098   0.00000  Uiso   1.00
O66    O     0.48253   0.32037   0.37399   0.00000  Uiso   1.00
O67    O     0.41903   0.40198   0.43362   0.00000  Uiso   1.00
C68    C     0.48683   0.36205   0.43523   0.00000  Uiso   1.00
C69    C     0.24731   0.46984   0.29142   0.00000  Uiso   1.00
O70    O     0.44342   0.47856   0.30291   0.00000  Uiso   1.00
O71    O     0.41688   0.54897   0.40746   0.00000  Uiso   1.00
O72    O     0.23952   0.39895   0.50525   0.00000  Uiso   1.00
O73    O     0.36876   0.41710   0.54716   0.00000  Uiso   1.00
O74    O     0.25944   0.52987   0.33750   0.00000  Uiso   1.00
O75    O     0.26532   0.40697   0.33018   0.00000  Uiso   1.00
O76    O     0.23366   0.35211   0.40359   0.00000  Uiso   1.00
O77    O     0.29786   0.25490   0.35501   0.00000  Uiso   1.00
C78    C     0.24209   0.27551   0.38936   0.00000  Uiso   1.00
C79    C     0.45738   0.54167   0.35479   0.00000  Uiso   1.00
N80    N     0.37550   0.75233   1.00072   0.00000  Uiso   1.00
H81    H     0.49705   0.62183  -0.03548   0.00000  Uiso   1.00
C82    C     0.44915   0.73103   0.99969   0.00000  Uiso   1.00
C83    C     0.44461   0.65159  -0.03280   0.00000  Uiso   1.00
C84    C     0.31582   0.69064   0.96542   0.00000  Uiso   1.00
S85    S     0.34786   0.60515  -0.07112   0.00000  Uiso   1.00
N86    N     0.47667   0.14501   0.17164   0.00000  Uiso   1.00
H87    H     0.46640   0.31441   0.08280   0.00000  Uiso   1.00
C88    C     0.45680   0.22023   0.16209   0.00000  Uiso   1.00
C89    C     0.47557   0.25330   0.09747   0.00000  Uiso   1.00
C90    C     0.50965   0.12037   0.11230   0.00000  Uiso   1.00
S91    S     0.52085   0.19072   0.04578   0.00000  Uiso   1.00
N92    N     0.62354   0.33772   0.47567   0.00000  Uiso   1.00
H93    H     0.73145   0.43816   0.63805   0.00000  Uiso   1.00
C94    C     0.69192   0.36014   0.52863   0.00000  Uiso   1.00
C95    C     0.68370   0.41556   0.58770   0.00000  Uiso   1.00
C96    C     0.56318   0.37514   0.49220   0.00000  Uiso   1.00
S97    S     0.58773   0.44156   0.57490   0.00000  Uiso   1.00
N98    N     0.71067   0.02693   0.76651   0.00000  Uiso   1.00
H99    H     0.58249   1.03597   0.60083   0.00000  Uiso   1.00
C100   C     0.69226   0.04318   0.69227   0.00000  Uiso   1.00
C101   C     0.60959   1.02534   0.65926   0.00000  Uiso   1.00
C102   C     0.64201  -0.00424   0.78940   0.00000  Uiso   1.00
S103   S     0.55257   0.98474   0.72066   0.00000  Uiso   1.00
N104   N     0.75677   1.04376   0.28485   0.00000  Uiso   1.00
H105   H     0.89422   0.20801   0.35354   0.00000  Uiso   1.00
C106   C     0.80753   0.09436   0.34317   0.00000  Uiso   1.00
C107   C     0.85460   0.15729   0.31635   0.00000  Uiso   1.00
C108   C     0.76878   1.06771   0.21539   0.00000  Uiso   1.00
S109   S     0.83908   0.15405   0.21866   0.00000  Uiso   1.00
N110   N     0.22391   0.35868   0.65554   0.00000  Uiso   1.00
H111   H     0.40617   0.31019   0.66264   0.00000  Uiso   1.00
C112   C     0.28650   0.34415   0.62450   0.00000  Uiso   1.00
C113   C     0.34805   0.31920   0.67592   0.00000  Uiso   1.00
C114   C     0.23958   0.35281   0.73204   0.00000  Uiso   1.00
S115   S     0.33048   0.32191   0.76799   0.00000  Uiso   1.00
N116   N     0.20448   0.51833   0.16059   0.00000  Uiso   1.00
H117   H     0.18006   0.36757   1.01992   0.00000  Uiso   1.00
C118   C     0.18758   0.48619   0.08570   0.00000  Uiso   1.00
C119   C     0.18994   0.40345   0.07550   0.00000  Uiso   1.00
C120   C     0.21794   0.45833   0.20672   0.00000  Uiso   1.00
S121   S     0.20684   0.36144   0.15986   0.00000  Uiso   1.00
N122   N     0.13528   0.23348   0.45930   0.00000  Uiso   1.00
H123   H     0.15306   0.13162   0.29775   0.00000  Uiso   1.00
C124   C     0.17564   0.21533   0.40355   0.00000  Uiso   1.00
C125   C     0.13322   0.15142   0.34955   0.00000  Uiso   1.00
C126   C     0.06177   0.18477   0.44747   0.00000  Uiso   1.00
S127   S     0.04045   0.11227   0.36822   0.00000  Uiso   1.00
N128   N     0.02156   0.81188   0.70311   0.00000  Uiso   1.00
H129   H     1.15089   0.98492   0.77156   0.00000  Uiso   1.00
C130   C     1.05055   0.89288   0.70433   0.00000  Uiso   1.00
C131   C     1.11967   0.92155   0.76130   0.00000  Uiso   1.00
C132   C     0.07069   0.78032   0.75954   0.00000  Uiso   1.00
S133   S     1.14993   0.84861   0.81709   0.00000  Uiso   1.00
N134   N     0.98304   0.32531   0.76698   0.00000  Uiso   1.00
H135   H     0.05520   0.37777   0.95295   0.00000  Uiso   1.00
C136   C     1.00222   0.37976   0.83043   0.00000  Uiso   1.00
C137   C     0.02647   0.34305   0.89700   0.00000  Uiso   1.00
C138   C     0.99166   0.24855   0.78441   0.00000  Uiso   1.00
S139   S     0.02355   0.23918   0.88027   0.00000  Uiso   1.00
N140   N     0.83553   0.73365   0.02894   0.00000  Uiso   1.00
H141   H     0.84998   0.82690   0.20331   0.00000  Uiso   1.00
C142   C     0.80366   0.76531   0.08608   0.00000  Uiso   1.00
C143   C     0.86134   0.79154   0.15361   0.00000  Uiso   1.00
C144   C     0.91609   0.73433   0.05476   0.00000  Uiso   1.00
S145   S     0.95672   0.77582   0.14786   0.00000  Uiso   1.00
N146   N     0.51700   0.66470   0.30064   0.00000  Uiso   1.00
H147   H     0.64014   0.80306   0.43269   0.00000  Uiso   1.00
C148   C     0.56321   0.73902   0.32650   0.00000  Uiso   1.00
C149   C     0.60084   0.74763   0.40295   0.00000  Uiso   1.00
C150   C     0.51937   0.61609   0.35824   0.00000  Uiso   1.00
S151   S     0.57382   0.66432   0.44743   0.00000  Uiso   1.00
loop_
_geom_bond_atom_site_label_1
_geom_bond_atom_site_label_2
_geom_bond_distance
_geom_bond_site_symmetry_2
_ccdc_geom_bond_type
C0     O4      1.247   .     A
C0     O5      1.250   .     A
C0     C114    1.445   .     S
Ho1    O4      2.200   .     S
Ho1    O5      2.230   .     S
Ho1    O6      2.254   .     S
Ho1    O7      2.186   .     S
Ho1    O10     2.337   .     S
Ho1    O15     2.158   .     S
Ho1    O17     2.271   .     S
C2     C144    1.459   .     S
C2     O12     1.281   1_655 A
C2     O13     1.276   1_554 A
Ho3    O7      2.239   .     S
Ho3    O11     2.164   .     S
Ho3    O14     2.281   .     S
Ho3    O15     2.207   .     S
Ho3    O16     2.179   .     S
Ho3    O12     2.173   1_556 S
Ho3    O13     2.168   1_455 S
O6     C8      1.204   .     D
O7     C8      1.355   .     S
C8     C136    1.482   1_455 S
C9     O14     1.206   .     D
C9     O15     1.345   .     S
C9     C84     1.470   .     S
O10    C19     1.325   .     A
O11    C19     1.279   .     A
O12    C2      1.281   1_455 A
O12    Ho3     2.173   1_554 S
O13    C2      1.276   1_556 A
O13    Ho3     2.168   1_655 S
O16    C18     1.271   .     A
O17    C18     1.298   .     A
C18    C132    1.467   .     S
C19    C118    1.464   1_556 S
C20    O24     1.275   .     A
C20    O25     1.284   .     A
C20    C148    1.455   .     S
Ho21   O24     2.152   .     S
Ho21   O25     2.170   .     S
Ho21   O26     2.215   .     S
Ho21   O27     2.124   .     S
Ho21   O30     2.247   .     S
Ho21   O35     2.106   .     S
Ho21   O37     2.261   .     S
C22    C102    1.478   .     S
C22    O32     1.281   1_556 A
C22    O33     1.269   1_545 A
Ho23   O27     2.191   .     S
Ho23   O31     2.188   .     S
Ho23   O34     2.278   .     S
Ho23   O35     2.200   .     S
Ho23   O36     2.210   .     S
Ho23   O32     2.200   1_565 S
Ho23   O33     2.171   1_554 S
O26    C28     1.210   1_554 D
O27    C28     1.370   1_554 S
C28    C82     1.466   .     S
C28    O26     1.210   1_556 D
C28    O27     1.370   1_556 S
C29    O34     1.198   .     D
C29    O35     1.337   .     S
C29    C108    1.472   .     S
O30    C39     1.315   .     A
O31    C39     1.300   .     A
O32    C22     1.281   1_554 A
O32    Ho23    2.200   1_545 S
O33    C22     1.269   1_565 A
O33    Ho23    2.171   1_556 S
O36    C38     1.302   .     A
O37    C38     1.314   .     A
C38    C142    1.476   .     S
C39    C90     1.473   1_565 S
C40    O44     1.285   .     A
C40    O45     1.274   .     A
C40    C94     1.464   .     S
Ho41   O44     2.173   .     S
Ho41   O45     2.171   .     S
Ho41   O46     2.148   .     S
Ho41   O47     2.181   .     S
Ho41   O50     2.241   .     S
Ho41   O55     2.055   .     S
Ho41   O57     2.216   .     S
C42    O52     1.279   1_565 A
C42    O53     1.281   1_455 A
C42    C130    1.475   1_455 S
Ho43   O47     2.260   .     S
Ho43   O51     2.182   .     S
Ho43   O54     2.261   .     S
Ho43   O55     2.104   .     S
Ho43   O56     2.197   .     S
Ho43   O52     2.173   1_655 S
Ho43   O53     2.206   1_545 S
O46    C48     1.231   .     D
O47    C48     1.441   .     S
C48    C106    1.494   .     S
C49    O54     1.230   .     D
C49    O55     1.362   .     S
C49    C138    1.474   .     S
O50    C59     1.315   .     A
O51    C59     1.299   .     A
O52    C42     1.279   1_545 A
O52    Ho43    2.173   1_455 S
O53    C42     1.281   1_655 A
O53    Ho43    2.206   1_565 S
O56    C58     1.293   .     A
O57    C58     1.299   .     A
C58    C100    1.473   .     S
C59    C126    1.469   1_655 S
C60    O64     1.276   .     A
C60    O65     1.271   .     A
C60    C88     1.454   .     S
Ho61   O64     2.187   .     S
Ho61   O65     2.176   .     S
Ho61   O66     2.156   .     S
Ho61   O67     2.104   .     S
Ho61   O70     2.249   .     S
Ho61   O75     2.126   .     S
Ho61   O77     2.178   .     S
C62    O72     1.278   .     A
C62    O73     1.273   .     A
C62    C112    1.461   .     S
Ho63   O67     2.243   .     S
Ho63   O71     2.164   .     S
Ho63   O72     2.184   .     S
Ho63   O73     2.187   .     S
Ho63   O74     2.299   .     S
Ho63   O75     2.198   .     S
Ho63   O76     2.279   .     S
O66    C68     1.225   .     D
O67    C68     1.404   .     S
C68    C96     1.455   .     S
C69    O74     1.203   .     D
C69    O75     1.329   .     S
C69    C120    1.476   .     S
O70    C79     1.300   .     A
O71    C79     1.271   .     A
O76    C78     1.307   .     A
O77    C78     1.292   .     A
C78    C124    1.463   .     S
C79    C150    1.485   .     S
N80    C82     1.349   .     A
N80    C84     1.345   .     A
H81    C83     1.085   .     S
C82    C83     1.379   1_556 A
C83    S85     1.690   .     A
C83    C82     1.379   1_554 A
C84    S85     1.714   1_556 A
S85    C84     1.714   1_554 A
N86    C88     1.350   .     A
N86    C90     1.349   .     A
H87    C89     1.088   .     S
C88    C89     1.378   .     A
C89    S91     1.693   .     A
C90    S91     1.735   .     A
C90    C39     1.473   1_545 S
N92    C94     1.326   .     A
N92    C96     1.339   .     A
H93    C95     1.082   .     S
C94    C95     1.381   .     A
C95    S97     1.720   .     A
C96    S97     1.707   .     A
N98    C100    1.349   .     A
N98    C102    1.351   .     A
H99    C101    1.087   .     S
C100   C101    1.388   1_545 A
C101   S103    1.703   .     A
C101   C100    1.388   1_565 A
C102   S103    1.727   1_545 A
S103   C102    1.727   1_565 A
N104   C108    1.365   .     A
N104   C106    1.349   1_565 A
H105   C107    1.080   .     S
C106   C107    1.387   .     A
C106   N104    1.349   1_545 A
C107   S109    1.696   .     A
C108   S109    1.709   1_565 A
S109   C108    1.709   1_545 A
N110   C112    1.331   .     A
N110   C114    1.344   .     A
H111   C113    1.085   .     S
C112   C113    1.379   .     A
C113   S115    1.715   .     A
C114   S115    1.714   .     A
N116   C118    1.352   .     A
N116   C120    1.350   .     A
H117   C119    1.081   1_556 S
C118   C119    1.374   .     A
C118   C19     1.464   1_554 S
C119   S121    1.688   .     A
C119   H117    1.081   1_554 S
C120   S121    1.715   .     A
N122   C124    1.348   .     A
N122   C126    1.350   .     A
H123   C125    1.083   .     S
C124   C125    1.380   .     A
C125   S127    1.714   .     A
C126   S127    1.721   .     A
C126   C59     1.469   1_455 S
N128   C132    1.360   .     A
N128   C130    1.354   1_455 A
H129   C131    1.087   .     S
C130   C131    1.386   .     A
C130   N128    1.354   1_655 A
C130   C42     1.475   1_655 S
C131   S133    1.691   .     A
C132   S133    1.722   1_455 A
S133   C132    1.722   1_655 A
N134   C136    1.342   .     A
N134   C138    1.350   .     A
H135   C137    1.093   .     S
C136   C137    1.387   1_655 A
C136   C8      1.482   1_655 S
C137   S139    1.712   .     A
C137   C136    1.387   1_455 A
C138   S139    1.706   1_655 A
S139   C138    1.706   1_455 A
N140   C142    1.345   .     A
N140   C144    1.351   .     A
H141   C143    1.085   .     S
C142   C143    1.385   .     A
C143   S145    1.696   .     A
C144   S145    1.708   .     A
N146   C148    1.351   .     A
N146   C150    1.345   .     A
H147   C149    1.083   .     S
C148   C149    1.368   .     A
C149   S151    1.688   .     A
C150   S151    1.736   .     A
