data_lcy+N173+E183
_audit_creation_date              2025-01-21
_audit_creation_method            'Materials Studio'
_symmetry_space_group_name_H-M    'P1'
_symmetry_Int_Tables_number       1
_symmetry_cell_setting            triclinic
loop_
_symmetry_equiv_pos_as_xyz
  x,y,z
_cell_length_a                    23.8831
_cell_length_b                    18.6350
_cell_length_c                    22.7963
_cell_angle_alpha                 93.5296
_cell_angle_beta                  85.1452
_cell_angle_gamma                 98.9701
loop_
_atom_site_label
_atom_site_type_symbol
_atom_site_fract_x
_atom_site_fract_y
_atom_site_fract_z
_atom_site_U_iso_or_equiv
_atom_site_adp_type
_atom_site_occupancy
Gd0    Gd    0.12551   0.66130   0.85514   0.00000  Uiso   1.00
Gd1    Gd    0.12838   0.58444   0.93070   0.00000  Uiso   1.00
O2     O     0.06499   0.49781   0.89589   0.00000  Uiso   1.00
O3     O     0.08117   0.55367   0.81345   0.00000  Uiso   1.00
O4     O     0.17164   0.59397   0.79452   0.00000  Uiso   1.00
O5     O     0.19753   0.54065   0.87069   0.00000  Uiso   1.00
O6     O     0.10990   0.72457   0.78029   0.00000  Uiso   1.00
O7     O     0.04544   0.63959   0.80867   0.00000  Uiso   1.00
O8     O     0.21088   0.72061   0.88253   0.00000  Uiso   1.00
C9     C     0.06015   0.69089   0.77439   0.00000  Uiso   1.00
O10    O     0.19573   0.66992   0.96685   0.00000  Uiso   1.00
O11    O     0.06972   0.72022   0.91830   0.00000  Uiso   1.00
C12    C     0.20165   0.55201   0.81543   0.00000  Uiso   1.00
O13    O     0.05635   0.63103   0.98110   0.00000  Uiso   1.00
O14    O     0.13533   0.50681   1.00060   0.00000  Uiso   1.00
O15    O     0.18240   0.61149   1.00787   0.00000  Uiso   1.00
C16    C     0.06067   0.49731   0.84117   0.00000  Uiso   1.00
C17    C     0.16854   0.55046   1.03053   0.00000  Uiso   1.00
C18    C     0.04165   0.68879   0.96232   0.00000  Uiso   1.00
C19    C     0.22832   0.71123   0.93175   0.00000  Uiso   1.00
Gd20   Gd    0.65117   0.84560   0.07404   0.00000  Uiso   1.00
Gd21   Gd    0.60265   0.93290   0.10196   0.00000  Uiso   1.00
O22    O     0.52732   0.87602   0.05855   0.00000  Uiso   1.00
O23    O     0.58302   0.80678   0.00779   0.00000  Uiso   1.00
O24    O     0.58508   0.77458   0.12635   0.00000  Uiso   1.00
O25    O     0.56900   0.86975   0.18312   0.00000  Uiso   1.00
O26    O     0.73769   0.86385   0.02529   0.00000  Uiso   1.00
O27    O     0.70381   0.75728   0.04932   0.00000  Uiso   1.00
O28    O     0.69535   0.87251   0.15733   0.00000  Uiso   1.00
C29    C     0.74655   0.79884   0.02792   0.00000  Uiso   1.00
O30    O     0.67717   0.98424   0.15154   0.00000  Uiso   1.00
O31    O     0.63484   0.85987  -0.01916   0.00000  Uiso   1.00
C32    C     0.56718   0.80068   0.17585   0.00000  Uiso   1.00
O33    O     0.64082   0.97405   0.01300   0.00000  Uiso   1.00
O34    O     0.54890   0.94219   0.18739   0.00000  Uiso   1.00
O35    O     0.55564   0.02643   0.12698   0.00000  Uiso   1.00
C36    C     0.53268   0.82358   0.02101   0.00000  Uiso   1.00
C37    C     0.53429   1.00265   0.17617   0.00000  Uiso   1.00
C38    C     0.64525   0.92706  -0.03046   0.00000  Uiso   1.00
C39    C     0.70022   0.93864   0.17752   0.00000  Uiso   1.00
Gd40   Gd    0.89075   0.04992   0.58105   0.00000  Uiso   1.00
Gd41   Gd    0.85314   0.15326   0.58422   0.00000  Uiso   1.00
O42    O     0.90042   0.19431   0.66047   0.00000  Uiso   1.00
O43    O     0.94708   0.10022   0.65152   0.00000  Uiso   1.00
O44    O     0.95860   0.09959   0.51713   0.00000  Uiso   1.00
O45    O     0.92848   0.20545   0.52790   0.00000  Uiso   1.00
O46    O     0.86532   0.95102   0.63561   0.00000  Uiso   1.00
O47    O     0.93441  -0.04712   0.57196   0.00000  Uiso   1.00
O48    O     0.83760   0.00302   0.50728   0.00000  Uiso   1.00
C49    C     0.90530   0.91856   0.61257   0.00000  Uiso   1.00
O50    O     0.80831   0.10917   0.50385   0.00000  Uiso   1.00
O51    O     0.82325   0.00594   0.64987   0.00000  Uiso   1.00
C52    C     0.96774   0.16753   0.51154   0.00000  Uiso   1.00
O53    O     0.78178   0.10300   0.64653   0.00000  Uiso   1.00
O54    O     0.81500   0.25639   0.59156   0.00000  Uiso   1.00
O55    O     0.78919   0.17900   0.52374   0.00000  Uiso   1.00
C56    C     0.94022   0.16282   0.67470   0.00000  Uiso   1.00
C57    C     0.78302   0.23952   0.54989   0.00000  Uiso   1.00
C58    C     0.78447   0.04305   0.66909   0.00000  Uiso   1.00
C59    C     0.81183   0.04545   0.48119   0.00000  Uiso   1.00
Gd60   Gd    0.34614   0.42907   0.39652   0.00000  Uiso   1.00
Gd61   Gd    0.41223   0.39445   0.47603   0.00000  Uiso   1.00
O62    O     0.40418   0.47528   0.55343   0.00000  Uiso   1.00
O63    O     0.35484   0.47711   0.48498   0.00000  Uiso   1.00
O64    O     0.27209   0.36303   0.43368   0.00000  Uiso   1.00
O65    O     0.32361   0.32867   0.50313   0.00000  Uiso   1.00
O66    O     0.31778   0.40482   0.30478   0.00000  Uiso   1.00
O67    O     0.29454   0.49779   0.35315   0.00000  Uiso   1.00
O68    O     0.36501   0.32626   0.34429   0.00000  Uiso   1.00
C69    C     0.29196   0.45922   0.30583   0.00000  Uiso   1.00
O70    O     0.42969   0.31203   0.40609   0.00000  Uiso   1.00
O71    O     0.42558   0.49660   0.36224   0.00000  Uiso   1.00
C72    C     0.27568   0.32910   0.47973   0.00000  Uiso   1.00
O73    O     0.48080   0.47774   0.43353   0.00000  Uiso   1.00
O74    O     0.50626   0.42877   0.47068   0.00000  Uiso   1.00
O75    O     0.46825   0.34724   0.52995   0.00000  Uiso   1.00
C76    C     0.36388   0.50207   0.53634   0.00000  Uiso   1.00
C77    C     0.51354   0.38315   0.50777   0.00000  Uiso   1.00
C78    C     0.47234   0.50952   0.38742   0.00000  Uiso   1.00
C79    C     0.40264   0.29056   0.36049   0.00000  Uiso   1.00
C80    C     0.47983   0.78613  -0.00381   0.00000  Uiso   1.00
C81    C     0.39244   0.76992   0.94281   0.00000  Uiso   1.00
C82    C     0.37621   0.74723   0.99822   0.00000  Uiso   1.00
S83    S     0.34068   0.76963   0.89509   0.00000  Uiso   1.00
S84    S     0.30590   0.72219   0.01690   0.00000  Uiso   1.00
S85    S     0.46338   0.80031   0.92623   0.00000  Uiso   1.00
S86    S     0.42639   0.75030   0.04694   0.00000  Uiso   1.00
C87    C     0.28747   0.73828   0.94787   0.00000  Uiso   1.00
C88    C     0.41819   0.22520   0.32668   0.00000  Uiso   1.00
C89    C     0.46656   0.12085   0.29629   0.00000  Uiso   1.00
C90    C     0.43629   0.13130   0.25056   0.00000  Uiso   1.00
S91    S     0.51190   0.05940   0.28776   0.00000  Uiso   1.00
S92    S     0.44698   0.08236   0.18652   0.00000  Uiso   1.00
S93    S     0.46231   0.17621   0.35726   0.00000  Uiso   1.00
S94    S     0.39501   0.19883   0.25821   0.00000  Uiso   1.00
C95    C     0.49722   0.04201   0.21564   0.00000  Uiso   1.00
C96    C     0.73459   0.27565   0.54373   0.00000  Uiso   1.00
C97    C     0.63895   0.30351   0.55590   0.00000  Uiso   1.00
C98    C     0.66771   0.35170   0.51745   0.00000  Uiso   1.00
S99    S     0.56886   0.30344   0.57168   0.00000  Uiso   1.00
S100   S     0.63107   0.40899   0.48647   0.00000  Uiso   1.00
S101   S     0.67345   0.24265   0.58350   0.00000  Uiso   1.00
S102   S     0.73784   0.34810   0.50028   0.00000  Uiso   1.00
C103   C     0.56890   0.36920   0.52271   0.00000  Uiso   1.00
C104   C     0.74620   0.01895   0.72096   0.00000  Uiso   1.00
C105   C     0.70372   0.94838   0.80549   0.00000  Uiso   1.00
C106   C     0.69620   0.01828   0.81997   0.00000  Uiso   1.00
S107   S     0.68304   0.88488   0.85642   0.00000  Uiso   1.00
S108   S     0.66913   0.03805   0.88970   0.00000  Uiso   1.00
S109   S     0.73743   0.92945   0.73885   0.00000  Uiso   1.00
S110   S     0.71916   0.08239   0.76920   0.00000  Uiso   1.00
C111   C     0.66268   0.94907   0.90833   0.00000  Uiso   1.00
C112   C     0.78768   0.02402   0.42375   0.00000  Uiso   1.00
C113   C     0.75410   0.95596   0.33493   0.00000  Uiso   1.00
C114   C     0.76200   0.02741   0.32208   0.00000  Uiso   1.00
S115   S     0.72920   0.89297   0.28266   0.00000  Uiso   1.00
S116   S     0.74814   0.04980   0.25404   0.00000  Uiso   1.00
S117   S     0.76974   0.93402   0.40243   0.00000  Uiso   1.00
S118   S     0.78545   0.09030   0.37479   0.00000  Uiso   1.00
C119   C     0.72739   0.95965   0.23344   0.00000  Uiso   1.00
C120   C     0.32590   0.53573   0.57869   0.00000  Uiso   1.00
C121   C     0.30608   0.55406   0.68528   0.00000  Uiso   1.00
C122   C     0.26195   0.50670   0.66578   0.00000  Uiso   1.00
S123   S     0.30580   0.57705   0.75874   0.00000  Uiso   1.00
S124   S     0.20903   0.47327   0.71551   0.00000  Uiso   1.00
S125   S     0.35815   0.58731   0.63477   0.00000  Uiso   1.00
S126   S     0.26041   0.48588   0.59250   0.00000  Uiso   1.00
C127   C     0.24145   0.52282   0.77238   0.00000  Uiso   1.00
C128   C     0.18947   0.53240   0.08529   0.00000  Uiso   1.00
C129   C     0.21710   0.46851   0.16527   0.00000  Uiso   1.00
C130   C     0.23393   0.54090   0.17787   0.00000  Uiso   1.00
S131   S     0.23347   0.40689   0.21040   0.00000  Uiso   1.00
S132   S     0.26784   0.56609   0.23979   0.00000  Uiso   1.00
S133   S     0.18286   0.44316   0.10403   0.00000  Uiso   1.00
S134   S     0.22214   0.60161   0.12972   0.00000  Uiso   1.00
C135   C     0.26420   0.47646   0.25583   0.00000  Uiso   1.00
C136   C     0.22083   0.29305   0.50477   0.00000  Uiso   1.00
C137   C     0.13054   0.21319   0.49339   0.00000  Uiso   1.00
C138   C     0.11666   0.27997   0.50877   0.00000  Uiso   1.00
S139   S     0.07710   0.14451   0.48004   0.00000  Uiso   1.00
S140   S     0.04713   0.29160   0.51327   0.00000  Uiso   1.00
S141   S     0.20043   0.20264   0.48664   0.00000  Uiso   1.00
S142   S     0.16994   0.34907   0.52018   0.00000  Uiso   1.00
C143   C     0.02652   0.20092   0.49556   0.00000  Uiso   1.00
C144   C     0.92155   0.85306   0.63330   0.00000  Uiso   1.00
C145   C     0.94598   0.76994   0.70197   0.00000  Uiso   1.00
C146   C    -0.01125   0.77626   0.65836   0.00000  Uiso   1.00
S147   S     0.95456   0.72558   0.76201   0.00000  Uiso   1.00
S148   S     0.04944   0.74350   0.66734   0.00000  Uiso   1.00
S149   S     0.89116   0.81753   0.69806   0.00000  Uiso   1.00
S150   S    -0.01707   0.82546   0.60069   0.00000  Uiso   1.00
C151   C     0.02217   0.71314   0.73463   0.00000  Uiso   1.00
C152   C     0.03872   0.42919   0.80967   0.00000  Uiso   1.00
C153   C     0.00471   0.30117   0.78655   0.00000  Uiso   1.00
C154   C     1.02526   0.33098   0.73464   0.00000  Uiso   1.00
S155   S    -0.02753   0.21303   0.78492   0.00000  Uiso   1.00
S156   S     1.01925   0.27852   0.67212   0.00000  Uiso   1.00
S157   S     0.00834   0.35504   0.84927   0.00000  Uiso   1.00
S158   S     1.05148   0.42093   0.73434   0.00000  Uiso   1.00
C159   C     0.98193   0.20737   0.70921   0.00000  Uiso   1.00
C160   C     0.80278   0.77638   1.01336   0.00000  Uiso   1.00
C161   C     0.88621   0.71402   1.01320   0.00000  Uiso   1.00
C162   C     0.90562   0.78028   0.99097   0.00000  Uiso   1.00
S163   S     0.93321   0.65511   1.01705   0.00000  Uiso   1.00
S164   S     0.97581   0.79912   0.96710   0.00000  Uiso   1.00
S165   S     0.81553   0.69319   1.03342   0.00000  Uiso   1.00
S166   S     0.85824   0.83856  -0.01411   0.00000  Uiso   1.00
C167   C     0.98835   0.71518   0.98594   0.00000  Uiso   1.00
C168   C     0.55301   0.74901   0.22374   0.00000  Uiso   1.00
C169   C     0.55054   0.63843   0.27728   0.00000  Uiso   1.00
C170   C     0.52874   0.68672   0.31587   0.00000  Uiso   1.00
S171   S     0.54822   0.55149   0.29648   0.00000  Uiso   1.00
S172   S     0.50038   0.65623   0.38245   0.00000  Uiso   1.00
S173   S     0.57284   0.66497   0.20886   0.00000  Uiso   1.00
S174   S     0.52568   0.77170   0.29302   0.00000  Uiso   1.00
C175   C     0.51303   0.56928   0.36299   0.00000  Uiso   1.00
loop_
_geom_bond_atom_site_label_1
_geom_bond_atom_site_label_2
_geom_bond_distance
_geom_bond_site_symmetry_2
_ccdc_geom_bond_type
Gd0    O3      2.307   .     S
Gd0    O4      2.158   .     S
Gd0    O6      2.221   .     S
Gd0    O7      2.234   .     S
Gd0    O8      2.279   .     S
Gd0    O11     2.234   .     S
Gd1    O2      2.193   .     S
Gd1    O5      2.273   .     S
Gd1    O10     2.251   .     S
Gd1    O13     2.245   .     S
Gd1    O14     2.250   .     S
Gd1    O15     2.255   .     S
O2     C16     1.260   .     A
O3     C16     1.269   .     A
O4     C12     1.277   .     A
O5     C12     1.283   .     A
O6     C9      1.268   .     A
O7     C9      1.260   .     A
O8     C19     1.261   .     A
C9     C151    1.456   .     S
O10    C19     1.274   .     A
O11    C18     1.279   .     A
C12    C127    1.449   .     S
O13    C18     1.290   .     A
O14    C17     1.256   .     A
O15    C17     1.263   .     A
C16    C152    1.465   .     S
C17    C128    1.460   1_556 S
C18    C167    1.483   1_455 S
C19    C87     1.493   .     S
Gd20   O23     2.317   .     S
Gd20   O24     2.211   .     S
Gd20   O26     2.249   .     S
Gd20   O27     2.240   .     S
Gd20   O28     2.242   .     S
Gd20   O31     2.231   .     S
Gd21   O22     2.217   .     S
Gd21   O25     2.275   .     S
Gd21   O30     2.244   .     S
Gd21   O33     2.279   .     S
Gd21   O34     2.253   .     S
Gd21   O35     2.237   1_565 S
O22    C36     1.273   .     A
O23    C36     1.296   .     A
O24    C32     1.268   .     A
O25    C32     1.282   .     A
O26    C29     1.268   .     A
O27    C29     1.263   .     A
O28    C39     1.280   .     A
C29    C160    1.474   1_554 S
O30    C39     1.280   .     A
O31    C38     1.276   .     A
C32    C168    1.483   .     S
O33    C38     1.290   .     A
O34    C37     1.277   .     A
O35    Gd21    2.237   1_545 S
O35    C37     1.268   1_545 A
C36    C80     1.483   .     S
C37    O35     1.268   1_565 A
C37    C95     1.455   1_565 S
C38    C111    1.486   1_554 S
C39    C119    1.483   .     S
Gd40   O43     2.249   .     S
Gd40   O44     2.215   .     S
Gd40   O47     2.215   .     S
Gd40   O48     2.245   .     S
Gd40   O51     2.247   .     S
Gd40   O46     2.262   1_545 S
Gd41   O42     2.186   .     S
Gd41   O45     2.247   .     S
Gd41   O50     2.247   .     S
Gd41   O53     2.249   .     S
Gd41   O54     2.243   .     S
Gd41   O55     2.265   .     S
O42    C56     1.266   .     A
O43    C56     1.279   .     A
O44    C52     1.263   .     A
O45    C52     1.278   .     A
O46    C49     1.269   .     A
O46    Gd40    2.262   1_565 S
O47    C49     1.255   1_545 A
O48    C59     1.277   .     A
C49    C144    1.454   .     S
C49    O47     1.255   1_565 A
O50    C59     1.278   .     A
O51    C58     1.273   .     A
C52    C143    1.470   1_655 S
O53    C58     1.271   .     A
O54    C57     1.263   .     A
O55    C57     1.266   .     A
C56    C159    1.447   .     S
C57    C96     1.447   .     S
C58    C104    1.480   .     S
C59    C112    1.483   .     S
Gd60   O63     2.168   .     S
Gd60   O64     2.135   .     S
Gd60   O66     2.250   .     S
Gd60   O67     2.234   .     S
Gd60   O68     2.278   .     S
Gd60   O71     2.218   .     S
Gd61   O62     2.264   .     S
Gd61   O65     2.330   .     S
Gd61   O70     2.205   .     S
Gd61   O73     2.270   .     S
Gd61   O74     2.232   .     S
Gd61   O75     2.203   .     S
O62    C76     1.251   .     A
O63    C76     1.256   .     A
O64    C72     1.274   .     A
O65    C72     1.305   .     A
O66    C69     1.264   .     A
O67    C69     1.259   .     A
O68    C79     1.288   .     A
C69    C135    1.443   .     S
O70    C79     1.280   .     A
O71    C78     1.281   .     A
C72    C136    1.463   .     S
O73    C78     1.283   .     A
O74    C77     1.276   .     A
O75    C77     1.264   .     A
C76    C120    1.450   .     S
C77    C103    1.458   .     S
C78    C175    1.464   .     S
C79    C88     1.481   .     S
C80    S86     1.730   .     A
C80    S85     1.720   1_554 A
C81    C82     1.363   .     A
C81    S83     1.714   .     A
C81    S85     1.718   .     A
C82    S84     1.696   1_556 A
C82    S86     1.694   1_556 A
S83    C87     1.732   .     A
S84    C82     1.696   1_554 A
S84    C87     1.725   1_554 A
S85    C80     1.720   1_556 A
S86    C82     1.694   1_554 A
C87    S84     1.725   1_556 A
C88    S93     1.712   .     A
C88    S94     1.718   .     A
C89    C90     1.358   .     A
C89    S91     1.687   .     A
C89    S93     1.685   .     A
C90    S92     1.695   .     A
C90    S94     1.708   .     A
S91    C95     1.711   .     A
S92    C95     1.710   .     A
C95    C37     1.455   1_545 S
C96    S101    1.702   .     A
C96    S102    1.711   .     A
C97    C98     1.360   .     A
C97    S99     1.682   .     A
C97    S101    1.682   .     A
C98    S100    1.701   .     A
C98    S102    1.698   .     A
S99    C103    1.708   .     A
S100   C103    1.721   .     A
C104   S110    1.727   .     A
C104   S109    1.718   1_545 A
C105   S107    1.698   .     A
C105   S109    1.702   .     A
C105   C106    1.359   1_565 A
C106   S108    1.706   .     A
C106   S110    1.711   .     A
C106   C105    1.359   1_545 A
S107   C111    1.726   .     A
S108   C111    1.718   1_545 A
S109   C104    1.718   1_565 A
C111   S108    1.718   1_565 A
C111   C38     1.486   1_556 S
C112   S118    1.725   .     A
C112   S117    1.716   1_545 A
C113   S115    1.697   .     A
C113   S117    1.702   .     A
C113   C114    1.362   1_565 A
C114   S116    1.702   .     A
C114   S118    1.693   .     A
C114   C113    1.362   1_545 A
S115   C119    1.732   .     A
S116   C119    1.724   1_545 A
S117   C112    1.716   1_565 A
C119   S116    1.724   1_565 A
C120   S125    1.713   .     A
C120   S126    1.705   .     A
C121   C122    1.352   .     A
C121   S123    1.702   .     A
C121   S125    1.692   .     A
C122   S124    1.694   .     A
C122   S126    1.694   .     A
S123   C127    1.719   .     A
S124   C127    1.712   .     A
C128   S133    1.723   .     A
C128   S134    1.720   .     A
C128   C17     1.460   1_554 S
C129   C130    1.366   .     A
C129   S131    1.698   .     A
C129   S133    1.683   .     A
C130   S132    1.692   .     A
C130   S134    1.694   .     A
S131   C135    1.720   .     A
S132   C135    1.719   .     A
C136   S141    1.714   .     A
C136   S142    1.723   .     A
C137   C138    1.355   .     A
C137   S139    1.694   .     A
C137   S141    1.704   .     A
C138   S140    1.702   .     A
C138   S142    1.688   .     A
S139   C143    1.723   .     A
S140   C143    1.718   .     A
C143   C52     1.470   1_455 S
C144   S149    1.713   .     A
C144   S150    1.723   1_655 A
C145   S147    1.685   .     A
C145   S149    1.703   .     A
C145   C146    1.360   1_655 A
C146   S148    1.690   .     A
C146   S150    1.676   .     A
C146   C145    1.360   1_455 A
S147   C151    1.726   1_655 A
S148   C151    1.709   .     A
S150   C144    1.723   1_455 A
C151   S147    1.726   1_455 A
C152   S157    1.727   .     A
C152   S158    1.720   1_455 A
C153   S155    1.701   .     A
C153   S157    1.696   .     A
C153   C154    1.359   1_455 A
C154   S156    1.681   .     A
C154   S158    1.696   .     A
C154   C153    1.359   1_655 A
S155   C159    1.721   1_455 A
S156   C159    1.706   .     A
S158   C152    1.720   1_655 A
C159   S155    1.721   1_655 A
C160   S165    1.721   .     A
C160   S166    1.720   1_556 A
C160   C29     1.474   1_556 S
C161   C162    1.362   .     A
C161   S163    1.699   .     A
C161   S165    1.703   .     A
C162   S164    1.707   .     A
C162   S166    1.701   1_556 A
S163   C167    1.723   .     A
S164   C167    1.724   .     A
S166   C160    1.720   1_554 A
S166   C162    1.701   1_554 A
C167   C18     1.483   1_655 S
C168   S173    1.712   .     A
C168   S174    1.711   .     A
C169   C170    1.351   .     A
C169   S171    1.696   .     A
C169   S173    1.683   .     A
C170   S172    1.702   .     A
C170   S174    1.711   .     A
S171   C175    1.710   .     A
S172   C175    1.719   .     A
