data_lcy+N144+E8
_audit_creation_date              2025-01-21
_audit_creation_method            'Materials Studio'
_symmetry_space_group_name_H-M    'P1'
_symmetry_Int_Tables_number       1
_symmetry_cell_setting            triclinic
loop_
_symmetry_equiv_pos_as_xyz
  x,y,z
_cell_length_a                    22.4336
_cell_length_b                    22.4079
_cell_length_c                    22.7263
_cell_angle_alpha                 85.3333
_cell_angle_beta                  85.3153
_cell_angle_gamma                 79.1876
loop_
_atom_site_label
_atom_site_type_symbol
_atom_site_fract_x
_atom_site_fract_y
_atom_site_fract_z
_atom_site_U_iso_or_equiv
_atom_site_adp_type
_atom_site_occupancy
C0     C     0.29418   0.66046   0.90940   0.00000  Uiso   1.00
Er1    Er    0.10417   0.58991   0.85574   0.00000  Uiso   1.00
Er2    Er    0.16995   0.64106   0.88051   0.00000  Uiso   1.00
C3     C     0.05213   0.66192   0.95725   0.00000  Uiso   1.00
O4     O     0.21249   0.56092   0.93168   0.00000  Uiso   1.00
C5     C     0.09141   0.71718   0.79470   0.00000  Uiso   1.00
C6     C     0.21025   0.57802   0.76628   0.00000  Uiso   1.00
C7     C     0.07040   0.50403   0.80171   0.00000  Uiso   1.00
O8     O     0.31022   0.61917  -0.12325   0.00000  Uiso   1.00
O9     O     0.23478   0.69226   0.91180   0.00000  Uiso   1.00
O10    O     0.22491   0.61883   0.79563   0.00000  Uiso   1.00
O11    O     0.17215   0.54697   0.79130   0.00000  Uiso   1.00
O12    O     0.12709   0.72163   0.83354   0.00000  Uiso   1.00
O13    O     0.07749   0.66510   0.78802   0.00000  Uiso   1.00
C14    C     0.18008   0.52234   0.95222   0.00000  Uiso   1.00
O15    O     0.13127   0.52111   0.92782   0.00000  Uiso   1.00
O16    O     0.10749   0.66800   0.95893   0.00000  Uiso   1.00
O17    O     0.03788   0.63520   0.91565   0.00000  Uiso   1.00
O18    O     0.12365   0.51594   0.79556   0.00000  Uiso   1.00
O19    O     1.03508   0.54011   0.83395   0.00000  Uiso   1.00
C20    C     0.77198   0.92252   0.21774   0.00000  Uiso   1.00
Er21   Er    0.60121   0.86986   0.09867   0.00000  Uiso   1.00
Er22   Er    0.66108   0.89032   0.16395   0.00000  Uiso   1.00
C23    C     0.67429   0.96485   0.05047   0.00000  Uiso   1.00
O24    O     0.58757   0.95708   0.19713   0.00000  Uiso   1.00
C25    C     0.73095   0.79545   0.09052   0.00000  Uiso   1.00
C26    C     0.59389   0.78658   0.20682   0.00000  Uiso   1.00
C27    C     0.52853   0.81347   0.04695   0.00000  Uiso   1.00
O28    O     0.79180  -0.07593   0.16627   0.00000  Uiso   1.00
O29    O     0.71507   0.90817   0.23455   0.00000  Uiso   1.00
O30    O     0.63150   0.81725   0.22269   0.00000  Uiso   1.00
O31    O     0.56883   0.80116   0.15832   0.00000  Uiso   1.00
O32    O     0.73644   0.82622   0.13292   0.00000  Uiso   1.00
O33    O     0.67928   0.80090   0.06854   0.00000  Uiso   1.00
C34    C     0.53792   0.97257   0.17245   0.00000  Uiso   1.00
O35    O     0.52734   0.94237   0.13016   0.00000  Uiso   1.00
O36    O     0.69313   0.95993   0.10219   0.00000  Uiso   1.00
O37    O     0.63433   0.93573   0.03941   0.00000  Uiso   1.00
O38    O     0.53949   0.80291   0.10094   0.00000  Uiso   1.00
O39    O     0.55384   0.85523   1.02284   0.00000  Uiso   1.00
C40    C     0.92648   0.23914   0.71070   0.00000  Uiso   1.00
Er41   Er    0.83957   0.08570   0.60716   0.00000  Uiso   1.00
Er42   Er    0.85136   0.15865   0.66219   0.00000  Uiso   1.00
C43    C     0.94755   0.04197   0.67455   0.00000  Uiso   1.00
O44    O     0.90674   0.19267   0.58952   0.00000  Uiso   1.00
C45    C     0.78397   0.07865   0.73620   0.00000  Uiso   1.00
C46    C     0.73263   0.18831   0.60020   0.00000  Uiso   1.00
C47    C     0.84341   0.02354   0.51460   0.00000  Uiso   1.00
O48    O     0.96526   0.20108   0.68757   0.00000  Uiso   1.00
O49    O     0.86581   0.23311   0.71421   0.00000  Uiso   1.00
O50    O     0.76514   0.21398   0.63068   0.00000  Uiso   1.00
O51    O     0.75495   0.13697   0.58119   0.00000  Uiso   1.00
O52    O     0.80049   0.12886   0.73770   0.00000  Uiso   1.00
O53    O     0.79284   0.05119   0.68846   0.00000  Uiso   1.00
C54    C     0.91874   0.16817   0.54073   0.00000  Uiso   1.00
O55    O     0.89238   0.12416   0.53085   0.00000  Uiso   1.00
O56    O     0.93120   0.09394   0.69639   0.00000  Uiso   1.00
O57    O     0.92131   0.03011   0.63137   0.00000  Uiso   1.00
O58    O     0.86712   0.07098   0.51333   0.00000  Uiso   1.00
O59    O     0.82043   1.00980   0.56488   0.00000  Uiso   1.00
C60    C     0.19744   0.31322   0.40574   0.00000  Uiso   1.00
Er61   Er    0.40231   0.41283   0.35174   0.00000  Uiso   1.00
Er62   Er    0.32292   0.36514   0.38877   0.00000  Uiso   1.00
C63    C     0.43483   0.34678   0.46582   0.00000  Uiso   1.00
O64    O     0.28329   0.44425   0.43799   0.00000  Uiso   1.00
C65    C     0.41100   0.28240   0.31216   0.00000  Uiso   1.00
C66    C     0.30146   0.43080   0.26715   0.00000  Uiso   1.00
C67    C     0.45243   0.51075   0.33749   0.00000  Uiso   1.00
O68    O     0.18907   0.33858   0.35696   0.00000  Uiso   1.00
O69    O     0.25047   0.31587   0.43358   0.00000  Uiso   1.00
O70    O     0.27501   0.39867   0.30686   0.00000  Uiso   1.00
O71    O     0.34909   0.44876   0.27897   0.00000  Uiso   1.00
O72    O     0.36190   0.28419   0.34405   0.00000  Uiso   1.00
O73    O     0.43683   0.32893   0.30568   0.00000  Uiso   1.00
C74    C     0.31460   0.48483   0.44407   0.00000  Uiso   1.00
O75    O     0.36170   0.48798   0.40879   0.00000  Uiso   1.00
O76    O     0.38179   0.33299   0.46415   0.00000  Uiso   1.00
O77    O     0.45618   0.37790   0.42326   0.00000  Uiso   1.00
O78    O     0.40522   0.50626   0.37138   0.00000  Uiso   1.00
O79    O     0.47374   0.46190   0.31275   0.00000  Uiso   1.00
C80    C     0.41247   0.72640   1.01129   0.00000  Uiso   1.00
C81    C     0.42281   0.72582   0.94942   0.00000  Uiso   1.00
N82    N     0.46814   0.75174   0.92151   0.00000  Uiso   1.00
C83    C     0.50331   0.77918   0.95250   0.00000  Uiso   1.00
C84    C     0.49281   0.78056   1.01426   0.00000  Uiso   1.00
N85    N     0.44803   0.75345   0.04249   0.00000  Uiso   1.00
N86    N     0.36527   0.70265   0.03867   0.00000  Uiso   1.00
C87    C     0.32740   0.67918   1.00683   0.00000  Uiso   1.00
C88    C     0.33771   0.67898   0.94510   0.00000  Uiso   1.00
N89    N     0.38539   0.70191   0.91783   0.00000  Uiso   1.00
H90    H     0.53896   0.79996   0.92897   0.00000  Uiso   1.00
H91    H     0.28927   0.66146   0.02927   0.00000  Uiso   1.00
C92    C     0.44427   0.14389   0.22532   0.00000  Uiso   1.00
C93    C     0.48842   0.10716   0.25909   0.00000  Uiso   1.00
N94    N     0.50766   0.12903   0.30663   0.00000  Uiso   1.00
C95    C     0.48492   0.18651   0.32219   0.00000  Uiso   1.00
C96    C     0.44071   0.22386   0.28899   0.00000  Uiso   1.00
N97    N     0.42050   0.20149   0.24150   0.00000  Uiso   1.00
N98    N     0.42689   0.12152   0.17666   0.00000  Uiso   1.00
C99    C     0.45258   0.06456   0.15966   0.00000  Uiso   1.00
C100   C     0.49783   0.02831   0.19304   0.00000  Uiso   1.00
N101   N     0.51373   0.05099   0.24211   0.00000  Uiso   1.00
H102   H     0.49991   0.20252   0.36117   0.00000  Uiso   1.00
H103   H     0.43977   0.04908   0.11942   0.00000  Uiso   1.00
C104   C     0.58480   0.29130   0.56681   0.00000  Uiso   1.00
C105   C     0.55142   0.24825   0.55106   0.00000  Uiso   1.00
N106   N     0.57552   0.18835   0.55714   0.00000  Uiso   1.00
C107   C     0.63207   0.16936   0.57606   0.00000  Uiso   1.00
C108   C     0.66789   0.21204   0.58809   0.00000  Uiso   1.00
N109   N     0.64261   0.27250   0.58458   0.00000  Uiso   1.00
N110   N     0.56043   0.35141   0.55947   0.00000  Uiso   1.00
C111   C     0.50619   0.37016   0.53467   0.00000  Uiso   1.00
C112   C     0.47522   0.32717   0.51451   0.00000  Uiso   1.00
N113   N     0.49831   0.26701   0.52450   0.00000  Uiso   1.00
H114   H     0.64951   0.12088   0.58013   0.00000  Uiso   1.00
H115   H     0.48977   0.41848   0.52609   0.00000  Uiso   1.00
C116   C     0.74764   0.04719   0.89555   0.00000  Uiso   1.00
C117   C     0.70859   1.00565   0.89446   0.00000  Uiso   1.00
N118   N     0.69522  -0.01223   0.84214   0.00000  Uiso   1.00
C119   C     0.71928   0.01002   0.79015   0.00000  Uiso   1.00
C120   C     0.75743   0.05268   0.79075   0.00000  Uiso   1.00
N121   N     0.77076   0.07036   0.84359   0.00000  Uiso   1.00
N122   N     0.76237   1.06283   0.94866   0.00000  Uiso   1.00
C123   C     0.73941   1.03845   1.00078   0.00000  Uiso   1.00
C124   C     0.69957   0.99748   0.99912   0.00000  Uiso   1.00
N125   N     0.68554   0.98250   0.94575   0.00000  Uiso   1.00
H126   H     0.70813  -0.00480   0.74890   0.00000  Uiso   1.00
H127   H     0.75179   1.05088   1.04260   0.00000  Uiso   1.00
C128   C     0.84644   0.98077   0.36066   0.00000  Uiso   1.00
C129   C     0.80775   0.93780   0.36833   0.00000  Uiso   1.00
N130   N     0.78666  -0.07984   0.42308   0.00000  Uiso   1.00
C131   C     0.80132  -0.05532   0.47107   0.00000  Uiso   1.00
C132   C     0.83747  -0.00997   0.46376   0.00000  Uiso   1.00
N133   N     0.85998   1.00672   0.40868   0.00000  Uiso   1.00
N134   N     0.86629   0.99863   0.30505   0.00000  Uiso   1.00
C135   C     0.84743   0.97690   0.25681   0.00000  Uiso   1.00
C136   C     0.80558   0.93702   0.26506   0.00000  Uiso   1.00
N137   N     0.78794   0.91779   0.32061   0.00000  Uiso   1.00
H138   H     0.78221  -0.06900   0.51423   0.00000  Uiso   1.00
H139   H     0.86210   0.99321   0.21291   0.00000  Uiso   1.00
C140   C     0.23768   0.54486   0.58336   0.00000  Uiso   1.00
C141   C     0.28594   0.56003   0.61152   0.00000  Uiso   1.00
N142   N     0.34039   0.55893   0.58001   0.00000  Uiso   1.00
C143   C     0.34897   0.54150   0.52310   0.00000  Uiso   1.00
C144   C     0.30169   0.52183   0.49674   0.00000  Uiso   1.00
N145   N     0.24698   0.52499   0.52787   0.00000  Uiso   1.00
N146   N     0.18278   0.54723   0.61290   0.00000  Uiso   1.00
C147   C     0.17399   0.56176   0.66992   0.00000  Uiso   1.00
C148   C     0.22286   0.57216   0.70091   0.00000  Uiso   1.00
N149   N     0.27804   0.57270   0.67026   0.00000  Uiso   1.00
H150   H     0.39350   0.53909   0.50017   0.00000  Uiso   1.00
H151   H     0.12883   0.56394   0.69121   0.00000  Uiso   1.00
C152   C     0.26290   0.47279   0.08641   0.00000  Uiso   1.00
C153   C     0.21978   0.44898   0.12523   0.00000  Uiso   1.00
N154   N     0.16653   0.44253   0.10385   0.00000  Uiso   1.00
C155   C     0.15397   0.46041   0.04632   0.00000  Uiso   1.00
C156   C     0.19646   0.48665   0.00837   0.00000  Uiso   1.00
N157   N     0.25001   0.49122   0.02984   0.00000  Uiso   1.00
N158   N     0.31544   0.48101   0.10637   0.00000  Uiso   1.00
C159   C     0.32711   0.46771   0.16382   0.00000  Uiso   1.00
C160   C     0.28397   0.44533   0.20457   0.00000  Uiso   1.00
N161   N     0.23120   0.43535   0.18391   0.00000  Uiso   1.00
H162   H     0.11004   0.45755   0.03151   0.00000  Uiso   1.00
H163   H     0.37045   0.47447   0.17711   0.00000  Uiso   1.00
C164   C     0.05612   0.24514   0.43865   0.00000  Uiso   1.00
C165   C     0.06395   0.22078   0.49680   0.00000  Uiso   1.00
N166   N     0.11490   0.22515   0.52318   0.00000  Uiso   1.00
C167   C     0.15865   0.25338   0.49435   0.00000  Uiso   1.00
C168   C     0.15087   0.27971   0.43651   0.00000  Uiso   1.00
N169   N     0.09954   0.27454   0.40984   0.00000  Uiso   1.00
N170   N     1.00492   0.23973   0.41256   0.00000  Uiso   1.00
C171   C     0.96095   0.21161   0.44225   0.00000  Uiso   1.00
C172   C     0.96801   0.18883   0.50125   0.00000  Uiso   1.00
N173   N     0.01962   0.19425   0.52661   0.00000  Uiso   1.00
H174   H     0.19885   0.25564   0.51675   0.00000  Uiso   1.00
H175   H     0.91997   0.20963   0.42106   0.00000  Uiso   1.00
C176   C     0.01925   0.88219   0.70172   0.00000  Uiso   1.00
C177   C     1.04700   0.88229   0.75435   0.00000  Uiso   1.00
N178   N     1.04745   0.93637   0.77799   0.00000  Uiso   1.00
C179   C     1.01965   0.99036   0.75170   0.00000  Uiso   1.00
C180   C     0.99020   0.98995   0.69972   0.00000  Uiso   1.00
N181   N     0.99188   0.93560   0.67596   0.00000  Uiso   1.00
N182   N     0.01619   0.82853   0.67908   0.00000  Uiso   1.00
C183   C     0.03927   0.77428   0.70744   0.00000  Uiso   1.00
C184   C     0.06657   0.77388   0.76072   0.00000  Uiso   1.00
N185   N     1.07035   0.82821   0.78255   0.00000  Uiso   1.00
H186   H     1.01864   1.03255   0.77208   0.00000  Uiso   1.00
H187   H     0.03645   0.73216   0.68845   0.00000  Uiso   1.00
C188   C     0.97683   0.39425   0.76967   0.00000  Uiso   1.00
C189   C     1.01967   0.35068   0.74026   0.00000  Uiso   1.00
N190   N     0.07800   0.35935   0.72953   0.00000  Uiso   1.00
C191   C     0.09536   0.40953   0.74719   0.00000  Uiso   1.00
C192   C     0.05257   0.45265   0.77718   0.00000  Uiso   1.00
N193   N     0.99421   0.44389   0.78766   0.00000  Uiso   1.00
N194   N     0.91846   0.38574   0.78019   0.00000  Uiso   1.00
C195   C     0.90097   0.33573   0.76238   0.00000  Uiso   1.00
C196   C     0.94386   0.29217   0.73293   0.00000  Uiso   1.00
N197   N     1.00235   0.30080   0.72271   0.00000  Uiso   1.00
H198   H     0.14229   0.41513   0.73897   0.00000  Uiso   1.00
H199   H     0.85403   0.33030   0.77094   0.00000  Uiso   1.00
C200   C     0.89468   0.73877   0.05783   0.00000  Uiso   1.00
C201   C     0.89363   0.69646   1.01642   0.00000  Uiso   1.00
N202   N     0.83972   0.68491   1.00123   0.00000  Uiso   1.00
C203   C     0.78603   0.71473   1.02529   0.00000  Uiso   1.00
C204   C     0.78661   0.75774   0.06644   0.00000  Uiso   1.00
N205   N     0.84115   0.76830   0.08208   0.00000  Uiso   1.00
N206   N     0.94899   0.75227   0.07032   0.00000  Uiso   1.00
C207   C     0.00238   0.72611   0.04178   0.00000  Uiso   1.00
C208   C     0.00086   0.68514   0.99874   0.00000  Uiso   1.00
N209   N     0.94630   0.67094   0.98838   0.00000  Uiso   1.00
H210   H     0.74364   0.70571   1.01166   0.00000  Uiso   1.00
H211   H     0.04475   0.73888   0.05080   0.00000  Uiso   1.00
C212   C     0.51538   0.67616   0.29597   0.00000  Uiso   1.00
C213   C     0.55000   0.62097   0.27759   0.00000  Uiso   1.00
N214   N     0.60153   0.62164   0.24211   0.00000  Uiso   1.00
C215   C     0.61932   0.67508   0.22317   0.00000  Uiso   1.00
C216   C     0.58352   0.73036   0.23962   0.00000  Uiso   1.00
N217   N     0.53217   0.72969   0.27563   0.00000  Uiso   1.00
N218   N     0.46358   0.67548   0.33102   0.00000  Uiso   1.00
C219   C     0.44407   0.62232   0.34751   0.00000  Uiso   1.00
C220   C     0.47698   0.56737   0.32674   0.00000  Uiso   1.00
N221   N     0.52969   0.56802   0.29272   0.00000  Uiso   1.00
H222   H     0.65917   0.67469   0.19279   0.00000  Uiso   1.00
H223   H     0.40204   0.62338   0.37473   0.00000  Uiso   1.00
loop_
_geom_bond_atom_site_label_1
_geom_bond_atom_site_label_2
_geom_bond_distance
_geom_bond_site_symmetry_2
_ccdc_geom_bond_type
C0     O9      1.387   .     S
C0     C88     1.456   .     S
C0     O8      1.216   1_556 D
Er1    O11     2.170   .     S
Er1    O13     2.217   .     S
Er1    O15     2.198   .     S
Er1    O17     2.103   .     S
Er1    O18     2.193   .     S
Er1    O19     2.181   1_455 S
Er2    O4      2.165   .     S
Er2    O9      2.206   .     S
Er2    O10     2.242   .     S
Er2    O12     2.127   .     S
Er2    O16     2.226   .     S
C3     O16     1.279   .     A
C3     O17     1.252   .     A
C3     C208    1.470   .     S
O4     C14     1.268   .     A
C5     O12     1.261   .     A
C5     O13     1.287   .     A
C5     C184    1.472   .     S
C6     O10     1.280   .     A
C6     O11     1.272   .     A
C6     C148    1.501   .     S
C7     O18     1.267   .     A
C7     C192    1.453   .     S
C7     O19     1.257   1_455 A
O8     C0      1.216   1_554 D
C14    O15     1.273   .     A
C14    C156    1.484   1_556 S
O19    Er1     2.181   1_655 S
O19    C7      1.257   1_655 A
C20    O29     1.391   .     S
C20    C136    1.453   .     S
C20    O28     1.217   1_565 D
Er21   O31     2.157   .     S
Er21   O33     2.210   .     S
Er21   O35     2.210   .     S
Er21   O37     2.114   .     S
Er21   O38     2.219   .     S
Er21   O39     2.174   1_554 S
Er22   O24     2.140   .     S
Er22   O29     2.192   .     S
Er22   O30     2.193   .     S
Er22   O32     2.116   .     S
Er22   O36     2.195   .     S
C23    O36     1.271   .     A
C23    O37     1.255   .     A
C23    C124    1.458   1_554 S
O24    C34     1.265   .     A
C25    O32     1.256   .     A
C25    O33     1.280   .     A
C25    C204    1.463   .     S
C26    O30     1.273   .     A
C26    O31     1.269   .     A
C26    C216    1.458   .     S
C27    O38     1.266   .     A
C27    O39     1.250   1_554 A
C27    C84     1.465   1_554 S
O28    C20     1.217   1_545 D
C34    O35     1.281   .     A
C34    C100    1.481   1_565 S
O39    Er21    2.174   1_556 S
O39    C27     1.250   1_556 A
C40    O48     1.217   .     D
C40    O49     1.388   .     S
C40    C196    1.457   .     S
Er41   O51     2.128   .     S
Er41   O53     2.206   .     S
Er41   O55     2.227   .     S
Er41   O57     2.101   .     S
Er41   O58     2.205   .     S
Er41   O59     2.147   1_545 S
Er42   O44     2.161   .     S
Er42   O49     2.207   .     S
Er42   O50     2.230   .     S
Er42   O52     2.115   .     S
Er42   O56     2.233   .     S
C43    O56     1.281   .     A
C43    O57     1.255   .     A
C43    C180    1.471   1_545 S
O44    C54     1.264   .     A
C45    O52     1.253   .     A
C45    O53     1.274   .     A
C45    C120    1.457   .     S
C46    O50     1.283   .     A
C46    O51     1.261   .     A
C46    C108    1.490   .     S
C47    O58     1.272   .     A
C47    C132    1.456   .     S
C47    O59     1.254   1_545 A
C54    O55     1.284   .     A
C54    C172    1.484   .     S
O59    Er41    2.147   1_565 S
O59    C47     1.254   1_565 A
C60    O68     1.216   .     D
C60    O69     1.405   .     S
C60    C168    1.495   .     S
Er61   O71     2.134   .     S
Er61   O73     2.207   .     S
Er61   O75     2.221   .     S
Er61   O77     2.115   .     S
Er61   O78     2.190   .     S
Er61   O79     2.199   .     S
Er62   O64     2.180   .     S
Er62   O69     2.262   .     S
Er62   O70     2.232   .     S
Er62   O72     2.156   .     S
Er62   O76     2.238   .     S
C63    O76     1.288   .     A
C63    O77     1.262   .     A
C63    C112    1.474   .     S
O64    C74     1.271   .     A
C65    O72     1.264   .     A
C65    O73     1.278   .     A
C65    C96     1.473   .     S
C66    O70     1.285   .     A
C66    O71     1.266   .     A
C66    C160    1.500   .     S
C67    O78     1.272   .     A
C67    O79     1.266   .     A
C67    C220    1.470   .     S
C74    O75     1.282   .     A
C74    C144    1.489   .     S
C80    C81     1.407   .     A
C80    N85     1.360   1_556 A
C80    N86     1.357   1_556 A
C81    N82     1.353   .     A
C81    N89     1.355   .     A
N82    C83     1.356   .     A
C83    C84     1.406   .     A
C83    H90     1.082   .     S
C84    N85     1.360   1_556 A
C84    C27     1.465   1_556 S
N85    C80     1.360   1_554 A
N85    C84     1.360   1_554 A
N86    C80     1.357   1_554 A
N86    C87     1.361   1_554 A
C87    C88     1.403   .     A
C87    N86     1.361   1_556 A
C87    H91     1.083   1_556 S
C88    N89     1.356   .     A
H91    C87     1.083   1_554 S
C92    C93     1.401   .     A
C92    N97     1.368   .     A
C92    N98     1.364   .     A
C93    N94     1.355   .     A
C93    N101    1.353   .     A
N94    C95     1.357   .     A
C95    C96     1.401   .     A
C95    H102    1.083   .     S
C96    N97     1.369   .     A
N98    C99     1.370   .     A
C99    C100    1.408   .     A
C99    H103    1.082   .     S
C100   N101    1.362   .     A
C100   C34     1.481   1_545 S
C104   C105    1.411   .     A
C104   N109    1.370   .     A
C104   N110    1.357   .     A
C105   N106    1.350   .     A
C105   N113    1.360   .     A
N106   C107    1.353   .     A
C107   C108    1.415   .     A
C107   H114    1.082   .     S
C108   N109    1.366   .     A
N110   C111    1.363   .     A
C111   C112    1.413   .     A
C111   H115    1.084   .     S
C112   N113    1.358   .     A
C116   N121    1.354   .     A
C116   C117    1.396   1_545 A
C116   N122    1.366   1_545 A
C117   N125    1.341   .     A
C117   C116    1.396   1_565 A
C117   N118    1.358   1_565 A
N118   C119    1.355   .     A
N118   C117    1.358   1_545 A
C119   C120    1.399   .     A
C119   H126    1.082   .     S
C120   N121    1.367   .     A
N122   C123    1.366   .     A
N122   C116    1.366   1_565 A
C123   C124    1.401   .     A
C123   H127    1.083   .     S
C124   N125    1.361   .     A
C124   C23     1.458   1_556 S
C128   C129    1.405   .     A
C128   N133    1.358   .     A
C128   N134    1.360   .     A
C129   N137    1.344   .     A
C129   N130    1.350   1_565 A
N130   C131    1.350   .     A
N130   C129    1.350   1_545 A
C131   C132    1.406   .     A
C131   H138    1.082   .     S
C132   N133    1.361   1_545 A
N133   C132    1.361   1_565 A
N134   C135    1.363   .     A
C135   C136    1.405   .     A
C135   H139    1.081   .     S
C136   N137    1.353   .     A
C140   C141    1.409   .     A
C140   N145    1.359   .     A
C140   N146    1.348   .     A
C141   N142    1.362   .     A
C141   N149    1.378   .     A
N142   C143    1.370   .     A
C143   C144    1.414   .     A
C143   H150    1.082   .     S
C144   N145    1.358   .     A
N146   C147    1.352   .     A
C147   C148    1.415   .     A
C147   H151    1.081   .     S
C148   N149    1.371   .     A
C152   C153    1.406   .     A
C152   N157    1.355   .     A
C152   N158    1.346   .     A
C153   N154    1.362   .     A
C153   N161    1.377   .     A
N154   C155    1.372   .     A
C155   C156    1.411   .     A
C155   H162    1.082   .     S
C156   N157    1.357   .     A
C156   C14     1.484   1_554 S
N158   C159    1.351   .     A
C159   C160    1.416   .     A
C159   H163    1.082   .     S
C160   N161    1.371   .     A
C164   C165    1.400   .     A
C164   N169    1.370   .     A
C164   N170    1.364   1_455 A
C165   N166    1.356   .     A
C165   N173    1.359   .     A
N166   C167    1.361   .     A
C167   C168    1.407   .     A
C167   H174    1.082   .     S
C168   N169    1.372   .     A
N170   C171    1.371   .     A
N170   C164    1.364   1_655 A
C171   C172    1.406   .     A
C171   H175    1.082   .     S
C172   N173    1.364   1_655 A
N173   C172    1.364   1_455 A
C176   N182    1.361   .     A
C176   C177    1.393   1_455 A
C176   N181    1.349   1_455 A
C177   N178    1.367   .     A
C177   N185    1.358   .     A
C177   C176    1.393   1_655 A
N178   C179    1.367   .     A
C179   C180    1.401   .     A
C179   H186    1.082   .     S
C180   N181    1.365   .     A
C180   C43     1.471   1_565 S
N181   C176    1.349   1_655 A
N182   C183    1.361   .     A
C183   C184    1.399   .     A
C183   H187    1.084   .     S
C184   N185    1.371   1_455 A
N185   C184    1.371   1_655 A
C188   C189    1.405   .     A
C188   N193    1.349   .     A
C188   N194    1.358   .     A
C189   N197    1.349   .     A
C189   N190    1.358   1_655 A
N190   C191    1.356   .     A
N190   C189    1.358   1_455 A
C191   C192    1.404   .     A
C191   H198    1.083   .     S
C192   N193    1.359   1_455 A
N193   C192    1.359   1_655 A
N194   C195    1.356   .     A
C195   C196    1.405   .     A
C195   H199    1.083   .     S
C196   N197    1.360   .     A
C200   N205    1.355   .     A
C200   N206    1.366   .     A
C200   C201    1.394   1_554 A
C201   N202    1.360   .     A
C201   N209    1.346   .     A
C201   C200    1.394   1_556 A
N202   C203    1.359   .     A
C203   H210    1.082   .     S
C203   C204    1.399   1_556 A
C204   N205    1.368   .     A
C204   C203    1.399   1_554 A
N206   C207    1.368   1_655 A
C207   H211    1.082   .     S
C207   N206    1.368   1_455 A
C207   C208    1.401   1_554 A
C208   C207    1.401   1_556 A
C208   N209    1.364   1_455 A
N209   C208    1.364   1_655 A
C212   C213    1.407   .     A
C212   N217    1.358   .     A
C212   N218    1.356   .     A
C213   N214    1.356   .     A
C213   N221    1.358   .     A
N214   C215    1.358   .     A
C215   C216    1.404   .     A
C215   H222    1.083   .     S
C216   N217    1.359   .     A
N218   C219    1.359   .     A
C219   C220    1.407   .     A
C219   H223    1.082   .     S
C220   N221    1.361   .     A
