data_lcy+N123+E8
_audit_creation_date              2025-01-21
_audit_creation_method            'Materials Studio'
_symmetry_space_group_name_H-M    'P1'
_symmetry_Int_Tables_number       1
_symmetry_cell_setting            triclinic
loop_
_symmetry_equiv_pos_as_xyz
  x,y,z
_cell_length_a                    24.6388
_cell_length_b                    17.3335
_cell_length_c                    23.8382
_cell_angle_alpha                 94.9877
_cell_angle_beta                  103.9525
_cell_angle_gamma                 95.3341
loop_
_atom_site_label
_atom_site_type_symbol
_atom_site_fract_x
_atom_site_fract_y
_atom_site_fract_z
_atom_site_U_iso_or_equiv
_atom_site_adp_type
_atom_site_occupancy
Ce0    Ce    0.21011   0.63185   0.86376   0.00000  Uiso   1.00
Ce1    Ce    0.12330   0.67646   0.93991   0.00000  Uiso   1.00
C2     C     0.23813   0.73429   0.97909   0.00000  Uiso   1.00
C3     C     0.26424   0.58832   0.78184   0.00000  Uiso   1.00
C4     C     0.12059   0.76075   0.82117   0.00000  Uiso   1.00
C5     C     0.09812   0.57577   0.82159   0.00000  Uiso   1.00
C6     C     0.04440   0.69926  -0.00049   0.00000  Uiso   1.00
C7     C     0.20951   0.54960   0.98551   0.00000  Uiso   1.00
O8     O     0.21069   0.70867   1.01012   0.00000  Uiso   1.00
O9     O     0.20500   0.73509   0.92499   0.00000  Uiso   1.00
O10    O     0.27972   0.65215   0.81548   0.00000  Uiso   1.00
O11    O     0.22523   0.54431   0.79385   0.00000  Uiso   1.00
O12    O     0.15789   0.71806   0.80825   0.00000  Uiso   1.00
O13    O     0.10107   0.75697   0.86706   0.00000  Uiso   1.00
O14    O     0.12501   0.61015   0.79348   0.00000  Uiso   1.00
O15    O     0.12916   0.57382   0.87716   0.00000  Uiso   1.00
O16    O     0.04098   0.63997   0.96280   0.00000  Uiso   1.00
O17    O     0.08866   0.74782   0.00640   0.00000  Uiso   1.00
O18    O     0.16770   0.58623   0.99288   0.00000  Uiso   1.00
O19    O     0.23366   0.55608   0.94239   0.00000  Uiso   1.00
Ce20   Ce    0.60570   0.94394   0.10538   0.00000  Uiso   1.00
Ce21   Ce    0.68373   0.82074   0.10140   0.00000  Uiso   1.00
C22    C     0.56802   0.76865   0.06091   0.00000  Uiso   1.00
C23    C     0.50435  -0.03698   0.11888   0.00000  Uiso   1.00
C24    C     0.69115   0.96006   0.02144   0.00000  Uiso   1.00
C25    C     0.68012   0.99854   0.20081   0.00000  Uiso   1.00
C26    C     0.76612   0.73239   0.09465   0.00000  Uiso   1.00
C27    C     0.60616   0.80152   0.19191   0.00000  Uiso   1.00
O28    O     0.60240   0.73231   0.08906   0.00000  Uiso   1.00
O29    O     0.59370   0.83397   0.04564   0.00000  Uiso   1.00
O30    O     0.51998   0.98265   0.07436   0.00000  Uiso   1.00
O31    O     0.53561  -0.08050   0.15038   0.00000  Uiso   1.00
O32    O     0.65568   0.99385   0.04386   0.00000  Uiso   1.00
O33    O     0.70956   0.89594   0.03634   0.00000  Uiso   1.00
O34    O     0.64386   1.03778   0.17747   0.00000  Uiso   1.00
O35    O     0.68451   0.92856   0.16726   0.00000  Uiso   1.00
O36    O     0.77039   0.78454   0.13721   0.00000  Uiso   1.00
O37    O     0.71691   0.71736   0.05992   0.00000  Uiso   1.00
O38    O     0.64545   0.77253   0.17187   0.00000  Uiso   1.00
O39    O     0.58236   0.86218   0.17323   0.00000  Uiso   1.00
Ce40   Ce    0.87071   0.14056   0.55075   0.00000  Uiso   1.00
Ce41   Ce    0.81412   0.08496   0.64922   0.00000  Uiso   1.00
C42    C     0.77799   0.01010   0.53698   0.00000  Uiso   1.00
C43    C     0.93674   0.19452   0.48475   0.00000  Uiso   1.00
C44    C     0.94380   0.05531   0.66096   0.00000  Uiso   1.00
C45    C     0.90242   0.22822   0.65809   0.00000  Uiso   1.00
C46    C     0.76936   0.03657   0.73286   0.00000  Uiso   1.00
C47    C     0.73919   0.17762   0.55000   0.00000  Uiso   1.00
O48    O     0.74589   0.02906   0.56543   0.00000  Uiso   1.00
O49    O     0.83242   0.02608   0.56845   0.00000  Uiso   1.00
O50    O     0.91567   0.12323   0.47828   0.00000  Uiso   1.00
O51    O     0.91893   0.23936   0.51988   0.00000  Uiso   1.00
O52    O     0.94350   0.08427   0.61205   0.00000  Uiso   1.00
O53    O     0.90220   0.05268   0.68523   0.00000  Uiso   1.00
O54    O     0.93507   0.20484   0.63238   0.00000  Uiso   1.00
O55    O     0.84812   0.20197   0.62890   0.00000  Uiso   1.00
O56    O     0.78391   0.10872   0.73058   0.00000  Uiso   1.00
O57    O     0.77451  -0.01049   0.69051   0.00000  Uiso   1.00
O58    O     0.73985   0.13690   0.59348   0.00000  Uiso   1.00
O59    O     0.78159   0.18901   0.52604   0.00000  Uiso   1.00
Ce60   Ce    0.38600   0.43292   0.38357   0.00000  Uiso   1.00
Ce61   Ce    0.32886   0.28358   0.39225   0.00000  Uiso   1.00
C62    C     0.42738   0.27098   0.46574   0.00000  Uiso   1.00
C63    C     0.47833   0.49177   0.35422   0.00000  Uiso   1.00
C64    C     0.31703   0.43141   0.48295   0.00000  Uiso   1.00
C65    C     0.29850   0.44026   0.29702   0.00000  Uiso   1.00
C66    C     0.22461   0.24108   0.40588   0.00000  Uiso   1.00
C67    C     0.39788   0.27843   0.29698   0.00000  Uiso   1.00
O68    O     0.38555   0.22328   0.46025   0.00000  Uiso   1.00
O69    O     0.41841   0.33729   0.43637   0.00000  Uiso   1.00
O70    O     0.46732   0.51427   0.40224   0.00000  Uiso   1.00
O71    O     0.44667   0.43145   0.32477   0.00000  Uiso   1.00
O72    O     0.34739   0.47579   0.45897   0.00000  Uiso   1.00
O73    O     0.30255   0.35841   0.46459   0.00000  Uiso   1.00
O74    O     0.33381   0.49640   0.31786   0.00000  Uiso   1.00
O75    O     0.30021   0.37496   0.32941   0.00000  Uiso   1.00
O76    O     0.24287   0.21032   0.36476   0.00000  Uiso   1.00
O77    O     0.26008   0.29243   0.44138   0.00000  Uiso   1.00
O78    O     0.36793   0.23818   0.32323   0.00000  Uiso   1.00
O79    O     0.41170   0.35354   0.30968   0.00000  Uiso   1.00
C80    C     0.41477   0.78239   1.00927   0.00000  Uiso   1.00
C81    C     0.39142   0.72485   0.03745   0.00000  Uiso   1.00
N82    N     0.42600   0.68049   0.07068   0.00000  Uiso   1.00
C83    C     0.48278   0.69131   0.07729   0.00000  Uiso   1.00
C84    C     0.50638   0.74960   0.04975   0.00000  Uiso   1.00
N85    N     0.47151   0.79390   1.01647   0.00000  Uiso   1.00
N86    N     0.38028   0.82540   0.97476   0.00000  Uiso   1.00
C87    C     0.32343   0.81296   0.96653   0.00000  Uiso   1.00
C88    C     0.29972   0.75554   0.99461   0.00000  Uiso   1.00
N89    N     0.33450   0.71277   1.02968   0.00000  Uiso   1.00
H90    H     0.50932   0.65584   0.10472   0.00000  Uiso   1.00
H91    H     0.29685   0.84698   0.93774   0.00000  Uiso   1.00
C92    C     0.42193   0.10313   0.21232   0.00000  Uiso   1.00
C93    C     0.44730   0.13343   0.17122   0.00000  Uiso   1.00
N94    N     0.45631   0.21223   0.17105   0.00000  Uiso   1.00
C95    C     0.44130   0.26223   0.21067   0.00000  Uiso   1.00
C96    C     0.41613   0.23156   0.25207   0.00000  Uiso   1.00
N97    N     0.40681   0.15265   0.25104   0.00000  Uiso   1.00
N98    N     0.41663   0.02513   0.21593   0.00000  Uiso   1.00
C99    C     0.43746  -0.02429   0.18123   0.00000  Uiso   1.00
C100   C     0.46431   0.00582   0.14096   0.00000  Uiso   1.00
N101   N     0.46770   0.08399   0.13633   0.00000  Uiso   1.00
H102   H     0.44917   0.32456   0.21000   0.00000  Uiso   1.00
H103   H     0.43642  -0.08543   0.18767   0.00000  Uiso   1.00
C104   C     0.58984   0.20856   0.53307   0.00000  Uiso   1.00
C105   C     0.58071   0.25956   0.49027   0.00000  Uiso   1.00
N106   N     0.62373   0.28332   0.46660   0.00000  Uiso   1.00
C107   C     0.67560   0.25845   0.48408   0.00000  Uiso   1.00
C108   C     0.68485   0.20779   0.52746   0.00000  Uiso   1.00
N109   N     0.64134   0.18457   0.55064   0.00000  Uiso   1.00
N110   N     0.54681   0.18223   0.55553   0.00000  Uiso   1.00
C111   C     0.49442   0.20385   0.53650   0.00000  Uiso   1.00
C112   C     0.48473   0.25479   0.49345   0.00000  Uiso   1.00
N113   N     0.52840   0.28175   0.47151   0.00000  Uiso   1.00
H114   H     0.70897   0.27793   0.46445   0.00000  Uiso   1.00
H115   H     0.46053   0.18071   0.55416   0.00000  Uiso   1.00
C116   C     0.72934   1.04021   0.87251   0.00000  Uiso   1.00
C117   C     0.73156  -0.03786   0.88325   0.00000  Uiso   1.00
N118   N     0.74282  -0.09059   0.84349   0.00000  Uiso   1.00
C119   C     0.75263  -0.06868   0.79324   0.00000  Uiso   1.00
C120   C     0.75190   0.00973   0.78286   0.00000  Uiso   1.00
N121   N     0.74027   0.06249   0.82280   0.00000  Uiso   1.00
N122   N     0.71640   1.09225   0.91187   0.00000  Uiso   1.00
C123   C     0.70520   1.06933   0.96154   0.00000  Uiso   1.00
C124   C     0.70805   0.99119  -0.02757   0.00000  Uiso   1.00
N125   N     0.72131   0.93981   0.93294   0.00000  Uiso   1.00
H126   H     0.76268  -0.11161   0.76272   0.00000  Uiso   1.00
H127   H     0.69393   1.11132   0.99184   0.00000  Uiso   1.00
C128   C     0.72914   0.03831   0.38273   0.00000  Uiso   1.00
C129   C     0.74393   0.97213   0.35426   0.00000  Uiso   1.00
N130   N     0.76905   0.91819   0.38651   0.00000  Uiso   1.00
C131   C     0.77964  -0.07247   0.44572   0.00000  Uiso   1.00
C132   C     0.76214  -0.00814   0.47368   0.00000  Uiso   1.00
N133   N     0.73792   0.04605   0.44127   0.00000  Uiso   1.00
N134   N     0.70665   1.09432   0.35148   0.00000  Uiso   1.00
C135   C     0.69633   1.08613   0.29269   0.00000  Uiso   1.00
C136   C     0.70728   1.01748   0.26329   0.00000  Uiso   1.00
N137   N     0.73158   0.96219   0.29503   0.00000  Uiso   1.00
H138   H     0.80142  -0.11462   0.47068   0.00000  Uiso   1.00
H139   H     0.67643   1.13084   0.26897   0.00000  Uiso   1.00
C140   C     0.31538   0.53668   0.62637   0.00000  Uiso   1.00
C141   C     0.26680   0.49721   0.63634   0.00000  Uiso   1.00
N142   N     0.23390   0.44295   0.59483   0.00000  Uiso   1.00
C143   C     0.24786   0.42476   0.54402   0.00000  Uiso   1.00
C144   C     0.29750   0.46171   0.53400   0.00000  Uiso   1.00
N145   N     0.33006   0.51774   0.57553   0.00000  Uiso   1.00
N146   N     0.34746   0.59207   0.66823   0.00000  Uiso   1.00
C147   C     0.33304   0.60956   0.71938   0.00000  Uiso   1.00
C148   C     0.28484   0.56889   0.72962   0.00000  Uiso   1.00
N149   N     0.25297   0.51389   0.68743   0.00000  Uiso   1.00
H150   H     0.22082   0.38059   0.51221   0.00000  Uiso   1.00
H151   H     0.35878   0.65468   0.75155   0.00000  Uiso   1.00
C152   C     0.22018   0.46278   0.12299   0.00000  Uiso   1.00
C153   C     0.27814   0.45940   0.14131   0.00000  Uiso   1.00
N154   N     0.31143   0.47461   0.10467   0.00000  Uiso   1.00
C155   C     0.28955   0.49570   0.05084   0.00000  Uiso   1.00
C156   C     0.23201   0.50413   0.03359   0.00000  Uiso   1.00
N157   N     0.19870   0.48599   0.07003   0.00000  Uiso   1.00
N158   N     0.18726   0.45012   0.16054   0.00000  Uiso   1.00
C159   C     0.21009   0.43630   0.21638   0.00000  Uiso   1.00
C160   C     0.26857   0.43724   0.23560   0.00000  Uiso   1.00
N161   N     0.30087   0.44781   0.19715   0.00000  Uiso   1.00
H162   H     0.31746   0.51154   1.02387   0.00000  Uiso   1.00
H163   H     0.18345   0.42923   0.24612   0.00000  Uiso   1.00
C164   C     0.08861   0.25978   0.44234   0.00000  Uiso   1.00
C165   C     0.05954   0.18502   0.42260   0.00000  Uiso   1.00
N166   N     0.08426   0.13077   0.39607   0.00000  Uiso   1.00
C167   C     0.13709   0.14770   0.38906   0.00000  Uiso   1.00
C168   C     0.16708   0.22139   0.41106   0.00000  Uiso   1.00
N169   N     0.14181   0.27592   0.43674   0.00000  Uiso   1.00
N170   N     0.06385   0.31429   0.46839   0.00000  Uiso   1.00
C171   C     0.01194   0.29675   0.47737   0.00000  Uiso   1.00
C172   C     0.98407   0.22059   0.46088   0.00000  Uiso   1.00
N173   N     0.00839   0.16676   0.43310   0.00000  Uiso   1.00
H174   H     0.15602   0.10355   0.36786   0.00000  Uiso   1.00
H175   H    -0.00588   0.34057   0.50022   0.00000  Uiso   1.00
C176   C     0.04215   0.91164   0.70555   0.00000  Uiso   1.00
C177   C     1.05849   0.93368   0.76591   0.00000  Uiso   1.00
N178   N     1.04466   1.00154   0.78814   0.00000  Uiso   1.00
C179   C     1.01329   1.04718   0.75307   0.00000  Uiso   1.00
C180   C     0.99357   1.02317   0.69311   0.00000  Uiso   1.00
N181   N     0.00917   0.95617   0.67051   0.00000  Uiso   1.00
N182   N     0.05545   0.84276   0.68380   0.00000  Uiso   1.00
C183   C     0.08345   0.79453   0.71980   0.00000  Uiso   1.00
C184   C     0.09715   0.81498   0.78035   0.00000  Uiso   1.00
N185   N     1.08469   0.88455   0.80175   0.00000  Uiso   1.00
H186   H     1.00017   1.09881   0.77238   0.00000  Uiso   1.00
H187   H     0.09247   0.73920   0.70160   0.00000  Uiso   1.00
C188   C    -0.00981   0.40667   0.78283   0.00000  Uiso   1.00
C189   C     0.95837   0.42325   0.72885   0.00000  Uiso   1.00
N190   N     0.96772   0.49441   0.71099   0.00000  Uiso   1.00
C191   C     1.00926   0.54873   0.74344   0.00000  Uiso   1.00
C192   C     0.04336   0.53059   0.79572   0.00000  Uiso   1.00
N193   N     0.03200   0.46069   0.81493   0.00000  Uiso   1.00
N194   N    -0.01580   0.33335   0.79829   0.00000  Uiso   1.00
C195   C    -0.05029   0.27498   0.76113   0.00000  Uiso   1.00
C196   C     0.92040   0.29061   0.70594   0.00000  Uiso   1.00
N197   N     0.92468   0.36479   0.69170   0.00000  Uiso   1.00
H198   H     1.01804   0.60343   0.72673   0.00000  Uiso   1.00
H199   H    -0.05159   0.21601   0.77279   0.00000  Uiso   1.00
C200   C     0.91219   0.73351   0.08091   0.00000  Uiso   1.00
C201   C     0.90681   0.67121   1.03756   0.00000  Uiso   1.00
N202   N     0.85691   0.62486   1.01822   0.00000  Uiso   1.00
C203   C     0.81163   0.63917   1.03922   0.00000  Uiso   1.00
C204   C     0.81635   0.70284   0.08147   0.00000  Uiso   1.00
N205   N     0.86697   0.74789   0.10172   0.00000  Uiso   1.00
N206   N     0.96125   0.78194   0.09845   0.00000  Uiso   1.00
C207   C     1.00506   0.77154   0.07408   0.00000  Uiso   1.00
C208   C     0.99954   0.71005   1.02986   0.00000  Uiso   1.00
N209   N     0.95049   0.66086   1.01317   0.00000  Uiso   1.00
H210   H     0.77177   0.60331   1.02138   0.00000  Uiso   1.00
H211   H     0.04340   0.81153   0.08842   0.00000  Uiso   1.00
C212   C     0.56896   0.63291   0.26572   0.00000  Uiso   1.00
C213   C     0.54043   0.66579   0.30434   0.00000  Uiso   1.00
N214   N     0.53444   0.74313   0.30646   0.00000  Uiso   1.00
C215   C     0.55548   0.78919   0.27133   0.00000  Uiso   1.00
C216   C     0.58443   0.75647   0.23291   0.00000  Uiso   1.00
N217   N     0.59070   0.67904   0.23151   0.00000  Uiso   1.00
N218   N     0.57136   0.55466   0.26034   0.00000  Uiso   1.00
C219   C     0.54550   0.50736   0.29117   0.00000  Uiso   1.00
C220   C     0.51679   0.54005   0.32980   0.00000  Uiso   1.00
N221   N     0.51538   0.61872   0.33568   0.00000  Uiso   1.00
H222   H     0.54950   0.85035   0.27323   0.00000  Uiso   1.00
H223   H     0.54578   0.44484   0.28429   0.00000  Uiso   1.00
loop_
_geom_bond_atom_site_label_1
_geom_bond_atom_site_label_2
_geom_bond_distance
_geom_bond_site_symmetry_2
_ccdc_geom_bond_type
Ce0    O9      2.242   .     S
Ce0    O10     2.302   .     S
Ce0    O11     2.277   .     S
Ce0    O12     2.349   .     S
Ce0    O14     2.322   .     S
Ce0    O15     2.254   .     S
Ce0    O19     2.371   .     S
Ce1    O8      2.372   .     S
Ce1    O9      2.289   .     S
Ce1    O13     2.317   .     S
Ce1    O15     2.261   .     S
Ce1    O16     2.273   .     S
Ce1    O18     2.287   .     S
Ce1    O17     2.297   1_556 S
C2     O8      1.202   .     D
C2     O9      1.352   .     S
C2     C88     1.475   .     S
C3     O10     1.278   .     A
C3     O11     1.274   .     A
C3     C148    1.478   .     S
C4     O12     1.308   .     A
C4     O13     1.301   .     A
C4     C184    1.467   .     S
C5     O14     1.206   .     D
C5     O15     1.366   .     S
C5     C192    1.460   .     S
C6     O17     1.282   .     A
C6     O16     1.273   1_554 A
C6     C208    1.477   1_454 S
C7     O18     1.298   .     A
C7     O19     1.314   .     A
C7     C156    1.474   1_556 S
O16    C6      1.273   1_556 A
O17    Ce1     2.297   1_554 S
Ce20   O29     2.229   .     S
Ce20   O30     2.248   .     S
Ce20   O32     2.304   .     S
Ce20   O34     2.221   .     S
Ce20   O35     2.191   .     S
Ce20   O39     2.377   .     S
Ce20   O31     2.269   1_565 S
Ce21   O28     2.349   .     S
Ce21   O29     2.338   .     S
Ce21   O33     2.277   .     S
Ce21   O35     2.329   .     S
Ce21   O36     2.268   .     S
Ce21   O37     2.283   .     S
Ce21   O38     2.296   .     S
C22    O28     1.210   .     D
C22    O29     1.365   .     S
C22    C84     1.477   .     S
C23    O31     1.286   .     A
C23    C100    1.456   .     S
C23    O30     1.275   1_545 A
C24    O32     1.288   .     A
C24    O33     1.285   .     A
C24    C124    1.460   .     S
C25    O34     1.229   .     D
C25    O35     1.421   .     S
C25    C136    1.472   .     S
C26    O36     1.276   .     A
C26    O37     1.282   .     A
C26    C204    1.473   .     S
C27    O38     1.300   .     A
C27    O39     1.311   .     A
C27    C216    1.469   .     S
O30    C23     1.275   1_565 A
O31    Ce20    2.269   1_545 S
Ce40   O49     2.235   .     S
Ce40   O50     2.280   .     S
Ce40   O51     2.269   .     S
Ce40   O52     2.369   .     S
Ce40   O54     2.313   .     S
Ce40   O55     2.276   .     S
Ce40   O59     2.383   .     S
Ce41   O48     2.344   .     S
Ce41   O49     2.261   .     S
Ce41   O53     2.274   .     S
Ce41   O55     2.258   .     S
Ce41   O56     2.258   .     S
Ce41   O57     2.260   .     S
Ce41   O58     2.295   .     S
C42    O48     1.209   .     D
C42    O49     1.359   .     S
C42    C132    1.463   .     S
C43    O50     1.276   .     A
C43    O51     1.275   .     A
C43    C172    1.468   .     S
C44    O52     1.308   .     A
C44    O53     1.292   .     A
C44    C180    1.466   1_545 S
C45    O54     1.201   .     D
C45    O55     1.365   .     S
C45    C196    1.456   .     S
C46    O56     1.278   .     A
C46    O57     1.280   .     A
C46    C120    1.459   .     S
C47    O58     1.301   .     A
C47    O59     1.314   .     A
C47    C108    1.479   .     S
Ce60   O69     2.257   .     S
Ce60   O70     2.266   .     S
Ce60   O71     2.283   .     S
Ce60   O72     2.326   .     S
Ce60   O74     2.216   .     S
Ce60   O75     2.282   .     S
Ce60   O79     2.382   .     S
Ce61   O68     2.268   .     S
Ce61   O69     2.274   .     S
Ce61   O73     2.320   .     S
Ce61   O75     2.316   .     S
Ce61   O76     2.284   .     S
Ce61   O77     2.289   .     S
Ce61   O78     2.221   .     S
C62    O68     1.233   .     D
C62    O69     1.405   .     S
C62    C112    1.472   .     S
C63    O70     1.276   .     A
C63    O71     1.285   .     A
C63    C220    1.463   .     S
C64    O72     1.286   .     A
C64    O73     1.290   .     A
C64    C144    1.485   .     S
C65    O74     1.225   .     D
C65    O75     1.423   .     S
C65    C160    1.466   .     S
C66    O76     1.270   .     A
C66    O77     1.281   .     A
C66    C168    1.464   .     S
C67    O78     1.275   .     A
C67    O79     1.305   .     A
C67    C96     1.469   .     S
C80    N85     1.360   .     A
C80    N86     1.357   .     A
C80    C81     1.405   1_556 A
C81    N82     1.359   .     A
C81    C80     1.405   1_554 A
C81    N89     1.363   1_554 A
N82    C83     1.363   .     A
C83    C84     1.407   .     A
C83    H90     1.082   .     S
C84    N85     1.363   1_554 A
N85    C84     1.363   1_556 A
N86    C87     1.360   .     A
C87    C88     1.406   .     A
C87    H91     1.083   .     S
C88    N89     1.365   .     A
N89    C81     1.363   1_556 A
C92    C93     1.396   .     A
C92    N97     1.347   .     A
C92    N98     1.358   .     A
C93    N94     1.364   .     A
C93    N101    1.355   .     A
N94    C95     1.366   .     A
C95    C96     1.402   .     A
C95    H102    1.082   .     S
C96    N97     1.363   .     A
N98    C99     1.358   .     A
C99    C100    1.400   .     A
C99    H103    1.083   .     S
C100   N101    1.365   .     A
C104   C105    1.399   .     A
C104   N109    1.353   .     A
C104   N110    1.358   .     A
C105   N106    1.363   .     A
C105   N113    1.362   .     A
N106   C107    1.367   .     A
C107   C108    1.405   .     A
C107   H114    1.082   .     S
C108   N109    1.364   .     A
N110   C111    1.360   .     A
C111   C112    1.403   .     A
C111   H115    1.083   .     S
C112   N113    1.368   .     A
C116   N122    1.359   .     A
C116   C117    1.402   1_565 A
C116   N121    1.356   1_565 A
C117   N118    1.354   .     A
C117   C116    1.402   1_545 A
C117   N125    1.350   1_545 A
N118   C119    1.356   .     A
C119   C120    1.404   .     A
C119   H126    1.082   .     S
C120   N121    1.362   .     A
N121   C116    1.356   1_545 A
N122   C123    1.362   .     A
C123   H127    1.082   .     S
C123   C124    1.406   1_556 A
C124   C123    1.406   1_554 A
C124   N125    1.358   1_554 A
N125   C117    1.350   1_565 A
N125   C124    1.358   1_556 A
C128   N133    1.352   .     A
C128   C129    1.404   1_545 A
C128   N134    1.353   1_545 A
C129   N130    1.361   .     A
C129   N137    1.362   .     A
C129   C128    1.404   1_565 A
N130   C131    1.364   1_565 A
C131   C132    1.404   .     A
C131   H138    1.082   .     S
C131   N130    1.364   1_545 A
C132   N133    1.358   .     A
N134   C135    1.355   .     A
N134   C128    1.353   1_565 A
C135   C136    1.409   .     A
C135   H139    1.083   .     S
C136   N137    1.365   .     A
C140   C141    1.404   .     A
C140   N145    1.368   .     A
C140   N146    1.362   .     A
C141   N142    1.353   .     A
C141   N149    1.357   .     A
N142   C143    1.356   .     A
C143   C144    1.409   .     A
C143   H150    1.080   .     S
C144   N145    1.368   .     A
N146   C147    1.367   .     A
C147   C148    1.408   .     A
C147   H151    1.082   .     S
C148   N149    1.360   .     A
C152   C153    1.397   .     A
C152   N157    1.357   .     A
C152   N158    1.363   .     A
C153   N154    1.360   .     A
C153   N161    1.354   .     A
N154   C155    1.362   .     A
C155   C156    1.403   .     A
C155   H162    1.082   1_554 S
C156   N157    1.368   .     A
C156   C7      1.474   1_554 S
N158   C159    1.366   .     A
C159   C160    1.401   .     A
C159   H163    1.083   .     S
C160   N161    1.364   .     A
H162   C155    1.082   1_556 S
C164   C165    1.405   .     A
C164   N169    1.355   .     A
C164   N170    1.356   .     A
C165   N166    1.358   .     A
C165   N173    1.358   .     A
N166   C167    1.360   .     A
C167   C168    1.405   .     A
C167   H174    1.082   .     S
C168   N169    1.360   .     A
N170   C171    1.358   .     A
C171   H175    1.082   .     S
C171   C172    1.407   1_455 A
C172   C171    1.407   1_655 A
C172   N173    1.362   1_655 A
N173   C172    1.362   1_455 A
C176   N181    1.362   .     A
C176   N182    1.360   .     A
C176   C177    1.405   1_455 A
C177   N178    1.354   .     A
C177   N185    1.355   .     A
C177   C176    1.405   1_655 A
N178   C179    1.356   .     A
C179   C180    1.406   .     A
C179   H186    1.082   .     S
C180   N181    1.364   1_655 A
C180   C44     1.466   1_565 S
N181   C180    1.364   1_455 A
N182   C183    1.363   .     A
C183   C184    1.406   .     A
C183   H187    1.082   .     S
C184   N185    1.359   1_455 A
N185   C184    1.359   1_655 A
C188   N193    1.356   .     A
C188   N194    1.359   .     A
C188   C189    1.404   1_455 A
C189   N190    1.357   .     A
C189   N197    1.354   .     A
C189   C188    1.404   1_655 A
N190   C191    1.358   .     A
C191   H198    1.083   .     S
C191   C192    1.404   1_655 A
C192   N193    1.361   .     A
C192   C191    1.404   1_455 A
N194   C195    1.361   .     A
C195   H199    1.082   .     S
C195   C196    1.402   1_455 A
C196   N197    1.359   .     A
C196   C195    1.402   1_655 A
C200   N205    1.359   .     A
C200   N206    1.359   .     A
C200   C201    1.402   1_554 A
C201   N202    1.359   .     A
C201   N209    1.359   .     A
C201   C200    1.402   1_556 A
N202   C203    1.362   .     A
C203   H210    1.082   .     S
C203   C204    1.404   1_556 A
C204   N205    1.364   .     A
C204   C203    1.404   1_554 A
N206   C207    1.362   .     A
C207   C208    1.405   1_554 A
C207   H211    1.082   1_655 S
C208   N209    1.365   .     A
C208   C207    1.405   1_556 A
C208   C6      1.477   1_656 S
H211   C207    1.082   1_455 S
C212   C213    1.401   .     A
C212   N217    1.355   .     A
C212   N218    1.359   .     A
C213   N214    1.360   .     A
C213   N221    1.356   .     A
N214   C215    1.362   .     A
C215   C216    1.403   .     A
C215   H222    1.082   .     S
C216   N217    1.364   .     A
N218   C219    1.361   .     A
C219   C220    1.402   .     A
C219   H223    1.083   .     S
C220   N221    1.363   .     A
