data_lcy+N248+E183
_audit_creation_date              2025-01-21
_audit_creation_method            'Materials Studio'
_symmetry_space_group_name_H-M    'P1'
_symmetry_Int_Tables_number       1
_symmetry_cell_setting            triclinic
loop_
_symmetry_equiv_pos_as_xyz
  x,y,z
_cell_length_a                    22.3239
_cell_length_b                    20.7517
_cell_length_c                    21.5900
_cell_angle_alpha                 92.4601
_cell_angle_beta                  86.9598
_cell_angle_gamma                 88.6381
loop_
_atom_site_label
_atom_site_type_symbol
_atom_site_fract_x
_atom_site_fract_y
_atom_site_fract_z
_atom_site_U_iso_or_equiv
_atom_site_adp_type
_atom_site_occupancy
O0     O     0.12796   0.71195   0.97476   0.00000  Uiso   1.00
Yb1    Yb    0.19551   0.59820   0.87561   0.00000  Uiso   1.00
C2     C     0.22973   0.56072   0.76807   0.00000  Uiso   1.00
Yb3    Yb    0.08013   0.63356   0.93155   0.00000  Uiso   1.00
O4     O     0.22033   0.67945   0.93164   0.00000  Uiso   1.00
C5     C     0.08153   0.69763   0.83133   0.00000  Uiso   1.00
C6     C     0.18552   0.71797   0.96663   0.00000  Uiso   1.00
O7     O    -0.00015   0.68866   0.92120   0.00000  Uiso   1.00
C8     C     0.97503   0.66949  -0.02835   0.00000  Uiso   1.00
O9     O     0.24435   0.53427   0.92449   0.00000  Uiso   1.00
O10    O     0.15165   0.56840   0.96102   0.00000  Uiso   1.00
O11    O     0.13987   0.51924   0.83595   0.00000  Uiso   1.00
O12    O     1.00829   0.63326   1.00277   0.00000  Uiso   1.00
O13    O     0.04835   0.55064   0.88132   0.00000  Uiso   1.00
C14    C     0.20641   0.53320   0.96791   0.00000  Uiso   1.00
C15    C     0.08233   0.51057   0.84711   0.00000  Uiso   1.00
O16    O     0.18853   0.53059   0.79907   0.00000  Uiso   1.00
O17    O     0.25220   0.60879   0.79620   0.00000  Uiso   1.00
O18    O     0.03849   0.70002   0.86954   0.00000  Uiso   1.00
O19    O     0.12875   0.65851   0.84626   0.00000  Uiso   1.00
O20    O     0.67985   0.95656   0.05294   0.00000  Uiso   1.00
Yb21   Yb    0.56864   0.88466   0.07159   0.00000  Uiso   1.00
C22    C     0.47136   0.86094   1.02631   0.00000  Uiso   1.00
Yb23   Yb    0.68617   0.90634   0.14653   0.00000  Uiso   1.00
O24    O     0.61892   0.90536  -0.01203   0.00000  Uiso   1.00
C25    C     0.59763   0.99110   0.16231   0.00000  Uiso   1.00
C26    C     0.66162   0.94464  -0.00320   0.00000  Uiso   1.00
O27    O     0.74271  -0.02850   0.19035   0.00000  Uiso   1.00
C28    C     0.75035   0.93048   0.23299   0.00000  Uiso   1.00
O29    O     0.63065   0.82810   0.00681   0.00000  Uiso   1.00
O30    O     0.64010   0.82636   0.10587   0.00000  Uiso   1.00
O31    O     0.52390   0.87469   0.15846   0.00000  Uiso   1.00
O32    O     0.72856   0.87403   0.22508   0.00000  Uiso   1.00
O33    O     0.61494   0.83398   0.17215   0.00000  Uiso   1.00
C34    C     0.66116   0.80627   0.04680   0.00000  Uiso   1.00
C35    C     0.55747   0.83781   0.18720   0.00000  Uiso   1.00
O36    O     0.50951   0.81648   0.03695   0.00000  Uiso   1.00
O37    O     0.48979   0.91885   1.03027   0.00000  Uiso   1.00
O38    O     0.61955   0.96380   0.20395   0.00000  Uiso   1.00
O39    O     0.62026   0.96718   0.10567   0.00000  Uiso   1.00
O40    O     0.96164   0.15567   0.69833   0.00000  Uiso   1.00
Yb41   Yb    0.82794   0.17049   0.61038   0.00000  Uiso   1.00
C42    C     0.74617   0.24473   0.58775   0.00000  Uiso   1.00
Yb43   Yb    0.92707   0.07392   0.64619   0.00000  Uiso   1.00
O44    O     0.88558   0.22546   0.67560   0.00000  Uiso   1.00
C45    C     0.84570   0.07117   0.73363   0.00000  Uiso   1.00
C46    C     0.93455   0.21183   0.70394   0.00000  Uiso   1.00
O47    O     0.94852   0.00356   0.71109   0.00000  Uiso   1.00
C48    C     0.99559   0.98468   0.67841   0.00000  Uiso   1.00
O49    O     0.90201   0.23716   0.59357   0.00000  Uiso   1.00
O50    O     0.91624   0.13687   0.56607   0.00000  Uiso   1.00
O51    O     0.87730   0.09633   0.54818   0.00000  Uiso   1.00
O52    O     1.01026   1.01954   0.63303   0.00000  Uiso   1.00
O53    O     0.88219   0.00240   0.59057   0.00000  Uiso   1.00
C54    C     0.93820   0.19868   0.56777   0.00000  Uiso   1.00
C55    C     0.86478   0.03560   0.54624   0.00000  Uiso   1.00
O56    O     0.78945   0.23037   0.54706   0.00000  Uiso   1.00
O57    O     0.75421   0.22997   0.64412   0.00000  Uiso   1.00
O58    O     0.89078   0.03652   0.73531   0.00000  Uiso   1.00
O59    O     0.84449   0.10856   0.68273   0.00000  Uiso   1.00
O60    O     0.39380   0.30675   0.45684   0.00000  Uiso   1.00
Yb61   Yb    0.44229   0.41011   0.34896   0.00000  Uiso   1.00
C62    C     0.46040   0.52145   0.31237   0.00000  Uiso   1.00
Yb63   Yb    0.33702   0.34156   0.38462   0.00000  Uiso   1.00
O64    O     0.47720   0.35988   0.42296   0.00000  Uiso   1.00
C65    C     0.31735   0.44738   0.45044   0.00000  Uiso   1.00
C66    C     0.45038   0.32062   0.45925   0.00000  Uiso   1.00
O67    O     0.25449   0.34667   0.43799   0.00000  Uiso   1.00
C68    C     0.23856   0.29076   0.41979   0.00000  Uiso   1.00
O69    O     0.49672   0.35641   0.28070   0.00000  Uiso   1.00
O70    O     0.41138   0.31715   0.32090   0.00000  Uiso   1.00
O71    O     0.38049   0.43976   0.27796   0.00000  Uiso   1.00
O72    O     0.27821   0.25871   0.38608   0.00000  Uiso   1.00
O73    O     0.29680   0.38449   0.30733   0.00000  Uiso   1.00
C74    C     0.46345   0.30998   0.28130   0.00000  Uiso   1.00
C75    C     0.32580   0.42094   0.26989   0.00000  Uiso   1.00
O76    O     0.42326   0.48374   0.28530   0.00000  Uiso   1.00
O77    O     0.48647   0.49808   0.35784   0.00000  Uiso   1.00
O78    O     0.28329   0.40207   0.44811   0.00000  Uiso   1.00
O79    O     0.36959   0.43840   0.41218   0.00000  Uiso   1.00
C80    C     0.40840   0.84558   1.02125   0.00000  Uiso   1.00
C81    C     0.30427   0.83663   0.99480   0.00000  Uiso   1.00
C82    C     0.31304   0.79377   1.03934   0.00000  Uiso   1.00
S83    S     0.23918   0.83348   0.95803   0.00000  Uiso   1.00
S84    S     0.25850   0.74211   1.05745   0.00000  Uiso   1.00
S85    S     0.36211   0.88403   0.97297   0.00000  Uiso   1.00
S86    S     0.38115   0.78702   1.06803   0.00000  Uiso   1.00
C87    C     0.21636   0.76854   0.99937   0.00000  Uiso   1.00
C88    C     0.47909   0.24864   0.24741   0.00000  Uiso   1.00
C89    C     0.49620   0.13312   0.22592   0.00000  Uiso   1.00
C90    C     0.53208   0.16298   0.18389   0.00000  Uiso   1.00
S91    S     0.50381   0.05219   0.23071   0.00000  Uiso   1.00
S92    S     0.58019   0.11718   0.13645   0.00000  Uiso   1.00
S93    S     0.45092   0.17903   0.27620   0.00000  Uiso   1.00
S94    S     0.53169   0.24457   0.18620   0.00000  Uiso   1.00
C95    C     0.55923   0.04868   0.17251   0.00000  Uiso   1.00
C96    C     0.68632   0.26176   0.56743   0.00000  Uiso   1.00
C97    C     0.57959   0.29132   0.56375   0.00000  Uiso   1.00
C98    C     0.59322   0.24900   0.51501   0.00000  Uiso   1.00
S99    S     0.51005   0.32789   0.56805   0.00000  Uiso   1.00
S100   S     0.54053   0.23237   0.46409   0.00000  Uiso   1.00
S101   S     0.63575   0.31136   0.61069   0.00000  Uiso   1.00
S102   S     0.66366   0.21832   0.50412   0.00000  Uiso   1.00
C103   C     0.49052   0.28789   0.50058   0.00000  Uiso   1.00
C104   C     0.79617   0.06568   0.77728   0.00000  Uiso   1.00
C105   C     0.72610   0.00364   0.83743   0.00000  Uiso   1.00
C106   C     0.74910   0.04782   0.87801   0.00000  Uiso   1.00
S107   S     0.67952   0.94784   0.86790   0.00000  Uiso   1.00
S108   S     0.73255   0.04289   0.95507   0.00000  Uiso   1.00
S109   S     0.74848   0.00550   0.76009   0.00000  Uiso   1.00
S110   S     0.80056   0.09907   0.85049   0.00000  Uiso   1.00
C111   C     0.68896  -0.02301   0.94297   0.00000  Uiso   1.00
C112   C     0.83852   0.00986   0.48934   0.00000  Uiso   1.00
C113   C     0.80413   0.00932   0.38372   0.00000  Uiso   1.00
C114   C     0.80641   0.94646   0.39912   0.00000  Uiso   1.00
S115   S     0.78612   0.02793   0.31134   0.00000  Uiso   1.00
S116   S     0.78680   0.89009   0.34446   0.00000  Uiso   1.00
S117   S     0.82012   0.06653   0.43761   0.00000  Uiso   1.00
S118   S     0.82911   0.92910   0.47110   0.00000  Uiso   1.00
C119   C     0.77698  -0.05171   0.29131   0.00000  Uiso   1.00
C120   C     0.30454   0.49920   0.49689   0.00000  Uiso   1.00
C121   C     0.30592   0.53154   0.60592   0.00000  Uiso   1.00
C122   C     0.24705   0.52980   0.59242   0.00000  Uiso   1.00
S123   S     0.32256   0.54534   0.68056   0.00000  Uiso   1.00
S124   S     0.19398   0.53522   0.65102   0.00000  Uiso   1.00
S125   S     0.35889   0.51550   0.54810   0.00000  Uiso   1.00
S126   S     0.23015   0.51349   0.51854   0.00000  Uiso   1.00
C127   C     0.24793   0.54443   0.70378   0.00000  Uiso   1.00
C128   C     0.22297   0.50299   0.02523   0.00000  Uiso   1.00
C129   C     0.28699   0.46625   0.10542   0.00000  Uiso   1.00
C130   C     0.23107   0.47333   0.13329   0.00000  Uiso   1.00
S131   S     0.34474   0.44571   0.14799   0.00000  Uiso   1.00
S132   S     0.22237   0.45645   0.20967   0.00000  Uiso   1.00
S133   S     0.29719   0.48159   0.02987   0.00000  Uiso   1.00
S134   S     0.17458   0.49979   0.08989   0.00000  Uiso   1.00
C135   C     0.29822   0.44069   0.21312   0.00000  Uiso   1.00
C136   C     0.17933   0.26871   0.44101   0.00000  Uiso   1.00
C137   C     0.09646   0.20940   0.48726   0.00000  Uiso   1.00
C138   C     0.07868   0.27270   0.49110   0.00000  Uiso   1.00
S139   S     0.04926   0.15499   0.51837   0.00000  Uiso   1.00
S140   S     0.01135   0.29398   0.52615   0.00000  Uiso   1.00
S141   S     0.16536   0.18906   0.45338   0.00000  Uiso   1.00
S142   S     0.12632   0.32759   0.46410   0.00000  Uiso   1.00
C143   C     0.99691   0.21510   0.54039   0.00000  Uiso   1.00
C144   C     0.02334   0.92169   0.68742   0.00000  Uiso   1.00
C145   C     0.08608   0.83464   0.72281   0.00000  Uiso   1.00
C146   C     0.03137   0.80905   0.71358   0.00000  Uiso   1.00
S147   S     0.13474   0.79187   0.76387   0.00000  Uiso   1.00
S148   S     1.01663   0.73455   0.73892   0.00000  Uiso   1.00
S149   S     0.09724   0.91261   0.70480   0.00000  Uiso   1.00
S150   S     0.97726   0.85660   0.68685   0.00000  Uiso   1.00
C151   C     0.08181   0.73411   0.77598   0.00000  Uiso   1.00
C152   C     1.05441   0.45270   0.81926   0.00000  Uiso   1.00
C153   C     1.03659   0.34711   0.76805   0.00000  Uiso   1.00
C154   C     0.98178   0.37166   0.78822   0.00000  Uiso   1.00
S155   S     1.04017   0.27307   0.73045   0.00000  Uiso   1.00
S156   S     0.92057   0.32775   0.77399   0.00000  Uiso   1.00
S157   S     0.09724   0.39329   0.77934   0.00000  Uiso   1.00
S158   S     0.97804   0.44398   0.82773   0.00000  Uiso   1.00
C159   C     0.96341   0.26607   0.73694   0.00000  Uiso   1.00
C160   C     0.71735   0.76932   0.03321   0.00000  Uiso   1.00
C161   C     0.80957   0.72636  -0.01953   0.00000  Uiso   1.00
C162   C     0.81686   0.71987   0.04205   0.00000  Uiso   1.00
S163   S     0.86745   0.70613   0.92967   0.00000  Uiso   1.00
S164   S     0.88409   0.69133   0.06426   0.00000  Uiso   1.00
S165   S     0.74411   0.75736   0.95779   0.00000  Uiso   1.00
S166   S     0.75991   0.74576   0.09275   0.00000  Uiso   1.00
C167   C     0.91218   0.68692  -0.01146   0.00000  Uiso   1.00
C168   C     0.53036   0.78732   0.22364   0.00000  Uiso   1.00
C169   C     0.52338   0.68861   0.27989   0.00000  Uiso   1.00
C170   C     0.47361   0.69120   0.24637   0.00000  Uiso   1.00
S171   S     0.53632   0.62238   0.32023   0.00000  Uiso   1.00
S172   S     0.42860   0.62648   0.24456   0.00000  Uiso   1.00
S173   S     0.57244   0.74932   0.27586   0.00000  Uiso   1.00
S174   S     0.46335   0.75567   0.20263   0.00000  Uiso   1.00
C175   C     0.47380   0.58651   0.29309   0.00000  Uiso   1.00
loop_
_geom_bond_atom_site_label_1
_geom_bond_atom_site_label_2
_geom_bond_distance
_geom_bond_site_symmetry_2
_ccdc_geom_bond_type
O0     C6      1.297   .     A
O0     Yb3     2.171   .     S
Yb1    Yb3     2.852   .     S
Yb1    O4      2.134   .     S
Yb1    O9      2.058   .     S
Yb1    O10     2.163   .     S
Yb1    O11     2.247   .     S
Yb1    O16     2.136   .     S
Yb1    O17     2.099   .     S
Yb1    O19     2.066   .     S
C2     O16     1.297   .     A
C2     O17     1.273   .     A
C2     C127    1.449   .     S
Yb3    O7      2.130   .     S
Yb3    O10     2.205   .     S
Yb3    O13     2.149   .     S
Yb3    O18     2.188   .     S
Yb3    O19     2.176   .     S
Yb3    O12     2.162   1_455 S
O4     C6      1.292   .     A
C5     O18     1.231   .     D
C5     O19     1.375   .     S
C5     C151    1.442   .     S
C6     C87     1.448   .     S
O7     C8      1.279   1_456 A
C8     C167    1.464   .     S
C8     O7      1.279   1_654 A
C8     O12     1.280   1_554 A
O9     C14     1.231   .     D
O10    C14     1.427   .     S
O11    C15     1.312   .     A
O12    Yb3     2.162   1_655 S
O12    C8      1.280   1_556 A
O13    C15     1.292   .     A
C14    C128    1.471   1_556 S
C15    C152    1.485   1_455 S
O20    C26     1.314   .     A
O20    Yb23    2.322   .     S
Yb21   Yb23    3.186   .     S
Yb21   O24     2.140   .     S
Yb21   O29     2.197   .     S
Yb21   O30     2.160   .     S
Yb21   O31     2.098   .     S
Yb21   O36     2.099   .     S
Yb21   O39     2.208   .     S
Yb21   O37     2.135   1_554 S
C22    O37     1.280   .     A
C22    C80     1.457   .     S
C22    O36     1.277   1_556 A
Yb23   O30     2.153   .     S
Yb23   O32     2.111   .     S
Yb23   O33     2.276   .     S
Yb23   O38     2.183   .     S
Yb23   O39     2.164   .     S
Yb23   O27     2.101   1_565 S
O24    C26     1.285   .     A
C25    O38     1.203   .     D
C25    O39     1.367   .     S
C25    C95     1.456   1_565 S
C26    C111    1.478   1_564 S
O27    Yb23    2.101   1_545 S
O27    C28     1.295   1_545 A
C28    O32     1.287   .     A
C28    O27     1.295   1_565 A
C28    C119    1.458   1_565 S
O29    C34     1.223   .     D
O30    C34     1.379   .     S
O31    C35     1.263   .     A
O33    C35     1.306   .     A
C34    C160    1.464   .     S
C35    C168    1.461   .     S
O36    C22     1.277   1_554 A
O37    Yb21    2.135   1_556 S
O40    C46     1.298   .     A
O40    Yb43    2.175   .     S
Yb41   Yb43    3.101   .     S
Yb41   O44     2.250   .     S
Yb41   O49     2.207   .     S
Yb41   O50     2.228   .     S
Yb41   O51     2.230   .     S
Yb41   O56     2.091   .     S
Yb41   O57     2.112   .     S
Yb41   O59     2.107   .     S
C42    O56     1.291   .     A
C42    O57     1.288   .     A
C42    C96     1.468   .     S
Yb43   O47     2.130   .     S
Yb43   O50     2.232   .     S
Yb43   O53     2.167   .     S
Yb43   O58     2.226   .     S
Yb43   O59     2.067   .     S
Yb43   O52     2.149   1_545 S
O44    C46     1.312   .     A
C45    O58     1.226   .     D
C45    O59     1.373   .     S
C45    C104    1.424   .     S
C46    C159    1.484   .     S
O47    C48     1.278   1_545 A
C48    O52     1.276   .     A
C48    O47     1.278   1_565 A
C48    C144    1.458   1_655 S
O49    C54     1.218   .     D
O50    C54     1.384   .     S
O51    C55     1.297   .     A
O52    Yb43    2.149   1_565 S
O53    C55     1.275   .     A
C54    C143    1.463   .     S
C55    C112    1.474   .     S
O60    C66     1.305   .     A
O60    Yb63    2.196   .     S
Yb61   Yb63    2.863   .     S
Yb61   O64     2.117   .     S
Yb61   O69     2.120   .     S
Yb61   O70     2.138   .     S
Yb61   O71     2.213   .     S
Yb61   O76     2.148   .     S
Yb61   O77     2.102   .     S
Yb61   O79     2.119   .     S
C62    O76     1.298   .     A
C62    O77     1.275   .     A
C62    C175    1.463   .     S
Yb63   O67     2.119   .     S
Yb63   O70     2.136   .     S
Yb63   O72     2.188   .     S
Yb63   O73     2.152   .     S
Yb63   O78     2.121   .     S
Yb63   O79     2.221   .     S
O64    C66     1.290   .     A
C65    O78     1.224   .     D
C65    O79     1.397   .     S
C65    C120    1.451   .     S
C66    C103    1.472   .     S
O67    C68     1.274   .     A
C68    O72     1.272   .     A
C68    C136    1.466   .     S
O69    C74     1.231   .     D
O70    C74     1.407   .     S
O71    C75     1.309   .     A
O73    C75     1.290   .     A
C74    C88     1.466   .     S
C75    C135    1.470   .     S
C80    S85     1.714   .     A
C80    S86     1.715   .     A
C81    C82     1.356   .     A
C81    S83     1.694   .     A
C81    S85     1.701   .     A
C82    S84     1.683   .     A
C82    S86     1.677   .     A
S83    C87     1.721   .     A
S84    C87     1.708   .     A
C88    S93     1.717   .     A
C88    S94     1.719   .     A
C89    C90     1.358   .     A
C89    S91     1.692   .     A
C89    S93     1.690   .     A
C90    S92     1.690   .     A
C90    S94     1.692   .     A
S91    C95     1.714   .     A
S92    C95     1.713   .     A
C95    C25     1.456   1_545 S
C96    S101    1.720   .     A
C96    S102    1.711   .     A
C97    C98     1.358   .     A
C97    S99     1.708   .     A
C97    S101    1.702   .     A
C98    S100    1.684   .     A
C98    S102    1.683   .     A
S99    C103    1.727   .     A
S100   C103    1.721   .     A
C104   S109    1.702   .     A
C104   S110    1.707   .     A
C105   C106    1.368   .     A
C105   S109    1.720   .     A
C105   S107    1.704   1_545 A
C106   S108    1.693   .     A
C106   S110    1.686   .     A
S107   C105    1.704   1_565 A
S107   C111    1.731   1_565 A
S108   C111    1.716   .     A
C111   S107    1.731   1_545 A
C111   C26     1.478   1_546 S
C112   S117    1.714   .     A
C112   S118    1.725   1_545 A
C113   S115    1.692   .     A
C113   S117    1.684   .     A
C113   C114    1.360   1_545 A
C114   S116    1.707   .     A
C114   S118    1.710   .     A
C114   C113    1.360   1_565 A
S115   C119    1.710   .     A
S116   C119    1.719   1_565 A
S118   C112    1.725   1_565 A
C119   S116    1.719   1_545 A
C119   C28     1.458   1_545 S
C120   S125    1.714   .     A
C120   S126    1.716   .     A
C121   C122    1.362   .     A
C121   S123    1.687   .     A
C121   S125    1.690   .     A
C122   S124    1.685   .     A
C122   S126    1.681   .     A
S123   C127    1.715   .     A
S124   C127    1.709   .     A
C128   S133    1.714   .     A
C128   S134    1.724   .     A
C128   C14     1.471   1_554 S
C129   C130    1.359   .     A
C129   S131    1.680   .     A
C129   S133    1.680   .     A
C130   S132    1.702   .     A
C130   S134    1.705   .     A
S131   C135    1.712   .     A
S132   C135    1.723   .     A
C136   S141    1.719   .     A
C136   S142    1.720   .     A
C137   C138    1.361   .     A
C137   S139    1.698   .     A
C137   S141    1.704   .     A
C138   S140    1.687   .     A
C138   S142    1.678   .     A
S139   C143    1.723   1_455 A
S140   C143    1.713   1_455 A
C143   S139    1.723   1_655 A
C143   S140    1.713   1_655 A
C144   S149    1.719   .     A
C144   S150    1.717   1_455 A
C144   C48     1.458   1_455 S
C145   C146    1.364   .     A
C145   S147    1.696   .     A
C145   S149    1.701   .     A
C146   S148    1.696   1_455 A
C146   S150    1.683   1_455 A
S147   C151    1.721   .     A
S148   C146    1.696   1_655 A
S148   C151    1.697   1_655 A
S150   C144    1.717   1_655 A
S150   C146    1.683   1_655 A
C151   S148    1.697   1_455 A
C152   S158    1.720   .     A
C152   S157    1.715   1_655 A
C152   C15     1.485   1_655 S
C153   C154    1.357   .     A
C153   S155    1.705   .     A
C153   S157    1.699   1_655 A
C154   S156    1.695   .     A
C154   S158    1.692   .     A
S155   C159    1.722   .     A
S156   C159    1.722   .     A
S157   C152    1.715   1_455 A
S157   C153    1.699   1_455 A
C160   S166    1.719   .     A
C160   S165    1.710   1_554 A
C161   C162    1.360   .     A
C161   S163    1.683   1_554 A
C161   S165    1.687   1_554 A
C162   S164    1.700   .     A
C162   S166    1.695   .     A
S163   C161    1.683   1_556 A
S163   C167    1.712   1_556 A
S164   C167    1.718   .     A
S165   C160    1.710   1_556 A
S165   C161    1.687   1_556 A
C167   S163    1.712   1_554 A
C168   S173    1.711   .     A
C168   S174    1.723   .     A
C169   C170    1.359   .     A
C169   S171    1.686   .     A
C169   S173    1.691   .     A
C170   S172    1.697   .     A
C170   S174    1.689   .     A
S171   C175    1.716   .     A
S172   C175    1.718   .     A
