data_lcy+N155+E15
_audit_creation_date              2025-01-21
_audit_creation_method            'Materials Studio'
_symmetry_space_group_name_H-M    'P1'
_symmetry_Int_Tables_number       1
_symmetry_cell_setting            triclinic
loop_
_symmetry_equiv_pos_as_xyz
  x,y,z
_cell_length_a                    17.0950
_cell_length_b                    17.2357
_cell_length_c                    18.2546
_cell_angle_alpha                 91.1956
_cell_angle_beta                  97.8245
_cell_angle_gamma                 98.8127
loop_
_atom_site_label
_atom_site_type_symbol
_atom_site_fract_x
_atom_site_fract_y
_atom_site_fract_z
_atom_site_U_iso_or_equiv
_atom_site_adp_type
_atom_site_occupancy
C0     C     0.27808   0.54203   0.73123   0.00000  Uiso   1.00
Ho1    Ho    0.24690   0.65031   0.81622   0.00000  Uiso   1.00
C2     C     1.01225   0.70070   0.00367   0.00000  Uiso   1.00
Ho3    Ho    0.12241   0.66963   0.92879   0.00000  Uiso   1.00
O4     O     0.23996   0.59634   0.70787   0.00000  Uiso   1.00
O5     O     0.30226   0.54535   0.80107   0.00000  Uiso   1.00
O6     O     0.12917   0.58147   0.82949   0.00000  Uiso   1.00
O7     O     0.13509   0.58481   0.83720   0.00000  Uiso   1.00
C8     C     0.07901   0.55156   0.77782   0.00000  Uiso   1.00
C9     C     0.26809   0.76832   0.94600   0.00000  Uiso   1.00
O10    O     0.22707   0.54809   0.89701   0.00000  Uiso   1.00
O11    O     0.16708   0.58383   0.99751   0.00000  Uiso   1.00
O12    O     0.08447   0.73479   0.01882   0.00000  Uiso   1.00
O13    O     0.99976   0.64932   0.95084   0.00000  Uiso   1.00
O14    O     0.20762   0.78442   0.96374   0.00000  Uiso   1.00
O15    O     0.25499   0.69187   0.92695   0.00000  Uiso   1.00
O16    O     0.08628   0.75111   0.84692   0.00000  Uiso   1.00
O17    O     0.19361   0.75844   0.78709   0.00000  Uiso   1.00
C18    C     0.13240   0.78559   0.80433   0.00000  Uiso   1.00
C19    C     0.20593   0.53844   0.96464   0.00000  Uiso   1.00
C20    C     0.56919   0.69552   0.20216   0.00000  Uiso   1.00
Ho21   Ho    0.63866   0.82966   0.16677   0.00000  Uiso   1.00
C22    C     0.68986   0.02048   0.97676   0.00000  Uiso   1.00
Ho23   Ho    0.72318   0.97757   0.11631   0.00000  Uiso   1.00
O24    O     0.54729   0.72914   0.14236   0.00000  Uiso   1.00
O25    O     0.62694   0.73530   0.24598   0.00000  Uiso   1.00
O26    O     0.54308   0.77845   0.08179   0.00000  Uiso   1.00
O27    O     0.61579   0.89353   0.06708   0.00000  Uiso   1.00
C28    C     0.54853   0.83490   1.04187   0.00000  Uiso   1.00
C29    C     0.75868   0.97196   0.26177   0.00000  Uiso   1.00
O30    O     0.55937   0.90377   0.20560   0.00000  Uiso   1.00
O31    O     0.61476   1.01517   0.15225   0.00000  Uiso   1.00
O32    O     0.72954   0.06420   0.02899   0.00000  Uiso   1.00
O33    O     0.66674   0.95295   0.99857   0.00000  Uiso   1.00
O34    O     0.77502   1.03072   0.22785   0.00000  Uiso   1.00
O35    O     0.74106   0.90776   0.21385   0.00000  Uiso   1.00
O36    O     0.80588   0.89539   0.08849   0.00000  Uiso   1.00
O37    O     0.72814   0.78056   0.11488   0.00000  Uiso   1.00
C38    C     0.79126   0.81880   0.09285   0.00000  Uiso   1.00
C39    C     0.55978   0.97542   0.18562   0.00000  Uiso   1.00
C40    C     0.68957   0.27457   0.51987   0.00000  Uiso   1.00
Ho41   Ho    0.79964   0.20423   0.59000   0.00000  Uiso   1.00
C42    C     0.00631   1.02257   0.73315   0.00000  Uiso   1.00
Ho43   Ho    0.90976   0.11173   0.67244   0.00000  Uiso   1.00
O44    O     0.69579   0.20273   0.50599   0.00000  Uiso   1.00
O45    O     0.74422   0.31046   0.56968   0.00000  Uiso   1.00
O46    O     0.72275   0.12416   0.50425   0.00000  Uiso   1.00
O47    O     0.81870   0.08600   0.57723   0.00000  Uiso   1.00
C48    C     0.76021   0.06929   0.51595   0.00000  Uiso   1.00
C49    C     0.96314   0.25525   0.73278   0.00000  Uiso   1.00
O50    O     0.89825   0.22084   0.51710   0.00000  Uiso   1.00
O51    O     0.97906   0.14447   0.58523   0.00000  Uiso   1.00
O52    O     0.01344   0.09586   0.75262   0.00000  Uiso   1.00
O53    O     0.94582   0.99776   0.68534   0.00000  Uiso   1.00
O54    O     0.98982   0.19578   0.75351   0.00000  Uiso   1.00
O55    O     0.89911   0.23532   0.67686   0.00000  Uiso   1.00
O56    O     0.81967   0.09427   0.74640   0.00000  Uiso   1.00
O57    O     0.72783   0.15962   0.68001   0.00000  Uiso   1.00
C58    C     0.75152   0.11877   0.73606   0.00000  Uiso   1.00
C59    C     0.96361   0.18816   0.52984   0.00000  Uiso   1.00
C60    C     0.37843   0.16168   0.23670   0.00000  Uiso   1.00
Ho61   Ho    0.32805   0.28148   0.29099   0.00000  Uiso   1.00
C62    C     0.28958   0.43265   0.49022   0.00000  Uiso   1.00
Ho63   Ho    0.27233   0.41860   0.34548   0.00000  Uiso   1.00
O64    O     0.39770   0.18528   0.30465   0.00000  Uiso   1.00
O65    O     0.33117   0.20093   0.19835   0.00000  Uiso   1.00
O66    O     0.40131   0.22816   0.37373   0.00000  Uiso   1.00
O67    O     0.35288   0.33693   0.40027   0.00000  Uiso   1.00
C68    C     0.41363   0.28715   0.41484   0.00000  Uiso   1.00
C69    C     0.23599   0.41901   0.19947   0.00000  Uiso   1.00
O70    O     0.43147   0.37215   0.27296   0.00000  Uiso   1.00
O71    O     0.39355   0.47679   0.33158   0.00000  Uiso   1.00
O72    O     0.26374   0.48308   0.44811   0.00000  Uiso   1.00
O73    O     0.31772   0.38051   0.45648   0.00000  Uiso   1.00
O74    O     0.22714   0.47262   0.24140   0.00000  Uiso   1.00
O75    O     0.25192   0.35529   0.23918   0.00000  Uiso   1.00
O76    O     0.16517   0.33253   0.35492   0.00000  Uiso   1.00
O77    O     0.21692   0.22156   0.32812   0.00000  Uiso   1.00
C78    C     0.16373   0.25733   0.35395   0.00000  Uiso   1.00
C79    C     0.44146   0.44565   0.29434   0.00000  Uiso   1.00
N80    N     0.38834   0.82711   0.89324   0.00000  Uiso   1.00
N81    N     0.46599   0.84350   0.91847   0.00000  Uiso   1.00
C82    C     0.47520   0.84581   0.99310   0.00000  Uiso   1.00
C83    C     0.40035   0.82878   0.01598   0.00000  Uiso   1.00
C84    C     0.34660   0.81780   0.95113   0.00000  Uiso   1.00
H85    H     0.38904   0.81248   0.07160   0.00000  Uiso   1.00
H86    H     0.36453   0.81552   0.83714   0.00000  Uiso   1.00
H87    H     0.51139   0.84624   0.88546   0.00000  Uiso   1.00
N88    N     0.41451  -0.02668   0.18222   0.00000  Uiso   1.00
N89    N     0.36563   0.02462   0.18946   0.00000  Uiso   1.00
C90    C     0.40972   0.09579   0.20684   0.00000  Uiso   1.00
C91    C     0.48994   0.09017   0.21072   0.00000  Uiso   1.00
C92    C     0.49016   0.01160   0.19493   0.00000  Uiso   1.00
H93    H     0.54078   0.13597   0.22483   0.00000  Uiso   1.00
H94    H     0.39599   0.91313   0.17066   0.00000  Uiso   1.00
H95    H     0.30366   0.00954   0.18858   0.00000  Uiso   1.00
N96    N     0.54422   0.31729   0.37690   0.00000  Uiso   1.00
N97    N     0.61921   0.31512   0.40481   0.00000  Uiso   1.00
C98    C     0.62471   0.31050   0.47896   0.00000  Uiso   1.00
C99    C     0.54858   0.31009   0.49905   0.00000  Uiso   1.00
C100   C     0.49917   0.31725   0.43271   0.00000  Uiso   1.00
H101   H     0.52993   0.29263   0.55153   0.00000  Uiso   1.00
H102   H     0.52050   0.30326   0.32068   0.00000  Uiso   1.00
H103   H     0.66366   0.30632   0.37324   0.00000  Uiso   1.00
N104   N     0.62072   1.00967   0.84532   0.00000  Uiso   1.00
N105   N     0.63463   1.04079   0.78117   0.00000  Uiso   1.00
C106   C     0.70009   0.09622   0.79299   0.00000  Uiso   1.00
C107   C     0.72951   0.10110   0.86848   0.00000  Uiso   1.00
C108   C     0.67697   0.04559   0.89951   0.00000  Uiso   1.00
H109   H     0.78470   0.13594   0.89602   0.00000  Uiso   1.00
H110   H     0.57624   0.96161   0.85074   0.00000  Uiso   1.00
H111   H     0.60496   1.01801   0.72969   0.00000  Uiso   1.00
N112   N     0.82382   0.94398   0.38694   0.00000  Uiso   1.00
N113   N     0.82206   0.96786   0.45600   0.00000  Uiso   1.00
C114   C     0.76105   1.00896   0.45770   0.00000  Uiso   1.00
C115   C     0.72246   1.01143   0.38591   0.00000  Uiso   1.00
C116   C     0.76432   0.97009   0.34290   0.00000  Uiso   1.00
H117   H     0.67736   1.04748   0.36707   0.00000  Uiso   1.00
H118   H     0.86966   0.91679   0.37044   0.00000  Uiso   1.00
H119   H     0.86626   0.96206   0.50029   0.00000  Uiso   1.00
N120   N     0.33839   0.42901   0.68472   0.00000  Uiso   1.00
N121   N     0.34012   0.40079   0.61575   0.00000  Uiso   1.00
C122   C     0.28910   0.43353   0.56930   0.00000  Uiso   1.00
C123   C     0.24729   0.47850   0.60732   0.00000  Uiso   1.00
C124   C     0.28554   0.47990   0.67852   0.00000  Uiso   1.00
H125   H     0.20808   0.51832   0.58418   0.00000  Uiso   1.00
H126   H     0.37622   0.41869   0.73209   0.00000  Uiso   1.00
H127   H     0.37599   0.36054   0.60160   0.00000  Uiso   1.00
N128   N     0.17322   0.37384   0.06963   0.00000  Uiso   1.00
N129   N     0.17145   0.40326   0.00270   0.00000  Uiso   1.00
C130   C     0.22418   0.47070   0.00637   0.00000  Uiso   1.00
C131   C     0.26052   0.48402   0.07854   0.00000  Uiso   1.00
C132   C     0.22820   0.42201   0.11777   0.00000  Uiso   1.00
H133   H     0.29499   0.54069   0.09890   0.00000  Uiso   1.00
H134   H     0.13223   0.32655   0.08348   0.00000  Uiso   1.00
H135   H     0.12855   0.38194  -0.04265   0.00000  Uiso   1.00
N136   N     0.09864   0.17077   0.51019   0.00000  Uiso   1.00
N137   N     0.14762   0.18028   0.46067   0.00000  Uiso   1.00
C138   C     0.11210   0.21346   0.40104   0.00000  Uiso   1.00
C139   C     0.03570   0.22663   0.41433   0.00000  Uiso   1.00
C140   C     0.02928   0.19656   0.48410   0.00000  Uiso   1.00
H141   H    -0.00679   0.25604   0.37963   0.00000  Uiso   1.00
H142   H     0.11356   0.14877   0.56237   0.00000  Uiso   1.00
H143   H     0.20671   0.16892   0.46943   0.00000  Uiso   1.00
N144   N     0.17565   0.92401   0.77338   0.00000  Uiso   1.00
N145   N     0.14318   0.98870   0.76195   0.00000  Uiso   1.00
C146   C     0.06351   0.97019   0.75963   0.00000  Uiso   1.00
C147   C     1.04406   0.89014   0.77041   0.00000  Uiso   1.00
C148   C     0.11732   0.86319   0.77886   0.00000  Uiso   1.00
H149   H     0.98541   0.85577   0.77186   0.00000  Uiso   1.00
H150   H     0.23708   0.92203   0.78021   0.00000  Uiso   1.00
H151   H     0.17492   1.04335   0.75223   0.00000  Uiso   1.00
N152   N     0.08933   0.34529   0.76695   0.00000  Uiso   1.00
N153   N     0.11921   0.42020   0.77469   0.00000  Uiso   1.00
C154   C     1.06029   0.46362   0.76827   0.00000  Uiso   1.00
C155   C     0.98674   0.41200   0.75091   0.00000  Uiso   1.00
C156   C     1.00898   0.33582   0.75178   0.00000  Uiso   1.00
H157   H     0.92746   0.42802   0.73928   0.00000  Uiso   1.00
H158   H     0.12438   0.30097   0.76746   0.00000  Uiso   1.00
H159   H     0.18216   0.44014   0.77727   0.00000  Uiso   1.00
N160   N     0.90043   0.66054   1.07067   0.00000  Uiso   1.00
N161   N     0.84013   0.69127   1.09143   0.00000  Uiso   1.00
C162   C     0.84978   0.76835   0.07698   0.00000  Uiso   1.00
C163   C     0.91990   0.78862   0.04646   0.00000  Uiso   1.00
C164   C     0.94850   0.71766   1.04294   0.00000  Uiso   1.00
H165   H     0.94315   0.84483   0.02540   0.00000  Uiso   1.00
H166   H     0.90708   0.60133   1.07401   0.00000  Uiso   1.00
H167   H     0.79230   0.65894   1.11302   0.00000  Uiso   1.00
N168   N     0.43486   0.51798   0.18788   0.00000  Uiso   1.00
N169   N     0.46014   0.58789   0.16747   0.00000  Uiso   1.00
C170   C     0.52886   0.61652   0.21244   0.00000  Uiso   1.00
C171   C     0.54421   0.56265   0.26676   0.00000  Uiso   1.00
C172   C     0.48343   0.49931   0.24741   0.00000  Uiso   1.00
H173   H     0.58925   0.57138   0.31577   0.00000  Uiso   1.00
H174   H     0.37819   0.48887   0.17284   0.00000  Uiso   1.00
H175   H     0.42748   0.61942   0.12863   0.00000  Uiso   1.00
loop_
_geom_bond_atom_site_label_1
_geom_bond_atom_site_label_2
_geom_bond_distance
_geom_bond_site_symmetry_2
_ccdc_geom_bond_type
C0     O4      1.269   .     A
C0     O5      1.283   .     A
C0     C124    1.456   .     S
Ho1    O4      2.149   .     S
Ho1    O5      2.195   .     S
Ho1    O6      2.220   .     S
Ho1    O7      2.152   .     S
Ho1    O10     2.336   .     S
Ho1    O15     2.110   .     S
Ho1    O17     2.240   .     S
C2     O12     1.274   1_655 A
C2     O13     1.269   1_554 A
C2     C164    1.445   1_554 S
Ho3    O7      2.252   .     S
Ho3    O11     2.123   .     S
Ho3    O14     2.292   .     S
Ho3    O15     2.245   .     S
Ho3    O16     2.165   .     S
Ho3    O12     2.195   1_556 S
Ho3    O13     2.166   1_455 S
O6     C8      1.231   .     D
O7     C8      1.395   .     S
C8     C154    1.502   1_455 S
C9     O14     1.194   .     D
C9     O15     1.333   .     S
C9     C84     1.466   .     S
O10    C19     1.339   .     A
O11    C19     1.289   .     A
O12    C2      1.274   1_455 A
O12    Ho3     2.195   1_554 S
O13    C2      1.269   1_556 A
O13    Ho3     2.166   1_655 S
O16    C18     1.274   .     A
O17    C18     1.283   .     A
C18    C148    1.473   .     S
C19    C130    1.458   1_556 S
C20    O24     1.284   .     A
C20    O25     1.280   .     A
C20    C170    1.457   .     S
Ho21   O24     2.142   .     S
Ho21   O25     2.203   .     S
Ho21   O26     2.160   .     S
Ho21   O27     2.167   .     S
Ho21   O30     2.174   .     S
Ho21   O35     2.106   .     S
Ho21   O37     2.170   .     S
C22    C108    1.481   .     S
C22    O32     1.255   1_556 A
C22    O33     1.261   1_545 A
Ho23   O27     2.227   .     S
Ho23   O31     2.229   .     S
Ho23   O34     2.225   .     S
Ho23   O35     2.183   .     S
Ho23   O36     2.245   .     S
Ho23   O32     2.209   1_565 S
Ho23   O33     2.237   1_554 S
O26    C28     1.228   1_554 D
O27    C28     1.427   1_554 S
C28    C82     1.475   .     S
C28    O26     1.228   1_556 D
C28    O27     1.427   1_556 S
C29    O34     1.214   .     D
C29    O35     1.366   .     S
C29    C116    1.472   .     S
O30    C39     1.294   .     A
O31    C39     1.304   .     A
O32    C22     1.255   1_554 A
O32    Ho23    2.209   1_545 S
O33    C22     1.261   1_565 A
O33    Ho23    2.237   1_556 S
O36    C38     1.311   .     A
O37    C38     1.293   .     A
C38    C162    1.475   .     S
C39    C92     1.453   1_565 S
C40    O44     1.282   .     A
C40    O45     1.285   .     A
C40    C98     1.475   .     S
Ho41   O44     2.179   .     S
Ho41   O45     2.203   .     S
Ho41   O46     2.208   .     S
Ho41   O47     2.125   .     S
Ho41   O50     2.275   .     S
Ho41   O55     2.155   .     S
Ho41   O57     2.261   .     S
C42    C146    1.471   .     S
C42    O52     1.288   1_565 A
C42    O53     1.272   1_455 A
Ho43   O47     2.159   .     S
Ho43   O51     2.145   .     S
Ho43   O54     2.217   .     S
Ho43   O55     2.166   .     S
Ho43   O56     2.174   .     S
Ho43   O52     2.195   1_655 S
Ho43   O53     2.155   1_545 S
O46    C48     1.228   .     D
O47    C48     1.388   .     S
C48    C114    1.475   1_545 S
C49    O54     1.231   .     D
C49    O55     1.387   .     S
C49    C156    1.495   .     S
O50    C59     1.322   .     A
O51    C59     1.296   .     A
O52    C42     1.288   1_545 A
O52    Ho43    2.195   1_455 S
O53    C42     1.272   1_655 A
O53    Ho43    2.155   1_565 S
O56    C58     1.291   .     A
O57    C58     1.308   .     A
C58    C106    1.471   .     S
C59    C140    1.480   1_655 S
C60    O64     1.280   .     A
C60    O65     1.278   .     A
C60    C90     1.454   .     S
Ho61   O64     2.184   .     S
Ho61   O65     2.177   .     S
Ho61   O66     2.142   .     S
Ho61   O67     2.154   .     S
Ho61   O70     2.238   .     S
Ho61   O75     2.105   .     S
Ho61   O77     2.217   .     S
C62    O72     1.263   .     A
C62    O73     1.268   .     A
C62    C122    1.444   .     S
Ho63   O67     2.270   .     S
Ho63   O71     2.209   .     S
Ho63   O72     2.192   .     S
Ho63   O73     2.219   .     S
Ho63   O74     2.229   .     S
Ho63   O75     2.165   .     S
Ho63   O76     2.202   .     S
O66    C68     1.225   .     D
O67    C68     1.447   .     S
C68    C100    1.464   .     S
C69    O74     1.228   .     D
C69    O75     1.370   .     S
C69    C132    1.482   .     S
O70    C79     1.297   .     A
O71    C79     1.301   .     A
O76    C78     1.292   .     A
O77    C78     1.306   .     A
C78    C138    1.456   .     S
C79    C172    1.450   .     S
N80    N81     1.329   .     A
N80    C84     1.352   .     A
N80    H86     1.052   .     S
N81    C82     1.349   .     A
N81    H87     1.042   .     S
C82    C83     1.390   1_556 D
C83    H85     1.094   .     S
C83    C82     1.390   1_554 D
C83    C84     1.387   1_554 S
C84    C83     1.387   1_556 S
N88    N89     1.323   .     A
N88    C92     1.346   .     A
N88    H94     1.045   1_545 S
N89    C90     1.345   .     A
N89    H95     1.049   .     S
C90    C91     1.382   .     A
C91    C92     1.379   .     A
C91    H93     1.079   .     S
C92    C39     1.453   1_545 S
H94    N88     1.045   1_565 S
N96    N97     1.320   .     A
N96    C100    1.358   .     A
N96    H102    1.059   .     S
N97    C98     1.349   .     A
N97    H103    1.041   .     S
C98    C99     1.399   .     A
C99    C100    1.398   .     A
C99    H101    1.084   .     S
N104   N105    1.334   .     A
N104   H110    1.051   .     S
N104   C108    1.349   1_565 A
N105   H111    1.043   .     S
N105   C106    1.345   1_565 A
C106   C107    1.397   .     A
C106   N105    1.345   1_545 A
C107   C108    1.393   .     A
C107   H109    1.090   .     S
C108   N104    1.349   1_545 A
N112   N113    1.324   .     A
N112   C116    1.348   .     A
N112   H118    1.046   .     S
N113   C114    1.351   .     A
N113   H119    1.046   .     S
C114   C115    1.389   .     A
C114   C48     1.475   1_565 S
C115   C116    1.386   .     A
C115   H117    1.087   .     S
N120   N121    1.346   .     A
N120   C124    1.348   .     A
N120   H126    1.043   .     S
N121   C122    1.329   .     A
N121   H127    1.044   .     S
C122   C123    1.370   .     A
C123   C124    1.371   .     A
C123   H125    1.084   .     S
N128   N129    1.331   .     A
N128   C132    1.360   .     A
N128   H134    1.049   .     S
N129   C130    1.352   .     A
N129   H135    1.048   .     S
C130   C131    1.377   .     A
C130   C19     1.458   1_554 S
C131   C132    1.385   .     A
C131   H133    1.090   .     S
N136   N137    1.310   .     A
N136   C140    1.359   .     A
N136   H142    1.046   .     S
N137   C138    1.354   .     A
N137   H143    1.050   .     S
C138   C139    1.411   .     A
C139   C140    1.397   .     A
C139   H141    1.089   .     S
C140   C59     1.480   1_455 S
N144   N145    1.328   .     A
N144   C148    1.347   .     A
N144   H150    1.046   .     S
N145   C146    1.345   .     A
N145   H151    1.044   .     S
C146   C147    1.393   1_455 A
C147   H149    1.087   .     S
C147   C146    1.393   1_655 A
C147   C148    1.392   1_655 A
C148   C147    1.392   1_455 A
N152   N153    1.311   .     A
N152   H158    1.040   .     S
N152   C156    1.348   1_455 A
N153   H159    1.073   .     S
N153   C154    1.338   1_455 A
C154   C155    1.418   .     A
C154   N153    1.338   1_655 A
C154   C8      1.502   1_655 S
C155   C156    1.422   .     A
C155   H157    1.085   .     S
C156   N152    1.348   1_655 A
N160   N161    1.324   .     A
N160   C164    1.337   .     A
N160   H166    1.046   .     S
N161   H167    1.045   .     S
N161   C162    1.349   1_556 A
C162   C163    1.390   .     A
C162   N161    1.349   1_554 A
C163   H165    1.088   .     S
C163   C164    1.388   1_554 A
C164   C163    1.388   1_556 A
C164   C2      1.445   1_556 S
N168   N169    1.296   .     A
N168   C172    1.351   .     A
N168   H174    1.019   .     S
N169   C170    1.357   .     A
N169   H175    1.054   .     S
C170   C171    1.399   .     A
C171   C172    1.390   .     A
C171   H173    1.090   .     S
