data_lcy+N394+E183
_audit_creation_date              2025-01-21
_audit_creation_method            'Materials Studio'
_symmetry_space_group_name_H-M    'P1'
_symmetry_Int_Tables_number       1
_symmetry_cell_setting            triclinic
loop_
_symmetry_equiv_pos_as_xyz
  x,y,z
_cell_length_a                    22.0020
_cell_length_b                    22.5418
_cell_length_c                    21.9656
_cell_angle_alpha                 96.0566
_cell_angle_beta                  98.1508
_cell_angle_gamma                 91.1401
loop_
_atom_site_label
_atom_site_type_symbol
_atom_site_fract_x
_atom_site_fract_y
_atom_site_fract_z
_atom_site_U_iso_or_equiv
_atom_site_adp_type
_atom_site_occupancy
Pr0    Pr    0.08828   0.70608   0.85742   0.00000  Uiso   1.00
Pr1    Pr    0.13962   0.62538   0.94504   0.00000  Uiso   1.00
O2     O     0.05758   0.65931   0.99419   0.00000  Uiso   1.00
O3     O     0.02555   0.72925   0.92918   0.00000  Uiso   1.00
O4     O     1.02970   0.74077   0.77467   0.00000  Uiso   1.00
O5     O     0.09811   0.80012   0.83084   0.00000  Uiso   1.00
O6     O     0.15864   0.72127   0.94231   0.00000  Uiso   1.00
O7     O     0.16257   0.78235   0.87382   0.00000  Uiso   1.00
C8     C     0.05807   0.54729   0.87913   0.00000  Uiso   1.00
C9     C     0.01883   0.69849   0.97459   0.00000  Uiso   1.00
C10    C     0.05624   0.79257   0.78418   0.00000  Uiso   1.00
C11    C     0.18499   0.55429   0.03022   0.00000  Uiso   1.00
C12    C     0.19745   0.62511   0.81742   0.00000  Uiso   1.00
C13    C     0.19325   0.76064   0.91614   0.00000  Uiso   1.00
O14    O     0.15898   0.66517   0.80255   0.00000  Uiso   1.00
O15    O     0.20428   0.60406   0.87083   0.00000  Uiso   1.00
O16    O     0.20279   0.60866   1.03159   0.00000  Uiso   1.00
O17    O     0.14534   0.53489   0.98340   0.00000  Uiso   1.00
O18    O     0.06279   0.60691   0.86434   0.00000  Uiso   1.00
O19    O     0.09382   0.53501   0.92369   0.00000  Uiso   1.00
Pr20   Pr    0.63734   0.88075   0.08170   0.00000  Uiso   1.00
Pr21   Pr    0.60875   0.79902   0.16504   0.00000  Uiso   1.00
O22    O     0.68319   0.74315   0.12226   0.00000  Uiso   1.00
O23    O     0.69770   0.80683   0.05258   0.00000  Uiso   1.00
O24    O     0.69828   0.94568   0.04210   0.00000  Uiso   1.00
O25    O     0.61796   0.90500   0.98364   0.00000  Uiso   1.00
O26    O     0.56026   0.81179   0.07168   0.00000  Uiso   1.00
O27    O     0.56768   0.86290   0.99312   0.00000  Uiso   1.00
C28    C     0.69405   0.85982   0.24524   0.00000  Uiso   1.00
C29    C     0.71075   0.75930   0.07819   0.00000  Uiso   1.00
C30    C     0.66840   0.93516   0.98739   0.00000  Uiso   1.00
C31    C     0.58545   0.71247   0.23437   0.00000  Uiso   1.00
C32    C     0.54124   0.92716   0.16882   0.00000  Uiso   1.00
C33    C     0.53612   0.82634   0.01330   0.00000  Uiso   1.00
O34    O     0.57018   0.94002   0.12426   0.00000  Uiso   1.00
O35    O     0.54585   0.87678   0.19358   0.00000  Uiso   1.00
O36    O     0.55497   0.71765   0.18150   0.00000  Uiso   1.00
O37    O     0.62479   0.75512   0.25515   0.00000  Uiso   1.00
O38    O     0.67887   0.87570   0.18407   0.00000  Uiso   1.00
O39    O     0.66979   0.81326   0.25576   0.00000  Uiso   1.00
Pr40   Pr    0.90408   0.16444   0.58782   0.00000  Uiso   1.00
Pr41   Pr    0.82252   0.13922   0.67812   0.00000  Uiso   1.00
O42    O     0.87654   0.22419   0.72951   0.00000  Uiso   1.00
O43    O     0.94232   0.23859   0.66132   0.00000  Uiso   1.00
O44    O     0.94091   0.21059   0.51219   0.00000  Uiso   1.00
O45    O    -0.00355   0.14578   0.55709   0.00000  Uiso   1.00
O46    O     0.91019   0.10023   0.65963   0.00000  Uiso   1.00
O47    O     0.98746   0.10442   0.60888   0.00000  Uiso   1.00
C48    C     0.74906   0.21059   0.62047   0.00000  Uiso   1.00
C49    C     0.91919   0.25487   0.71067   0.00000  Uiso   1.00
C50    C     0.99212   0.18433   0.51836   0.00000  Uiso   1.00
C51    C     0.78514   0.04024   0.72230   0.00000  Uiso   1.00
C52    C     0.80723   0.05927   0.54018   0.00000  Uiso   1.00
C53    C     0.96516   0.07780   0.64664   0.00000  Uiso   1.00
O54    O     0.85246   0.08924   0.52592   0.00000  Uiso   1.00
O55    O     0.78818   0.06616   0.59419   0.00000  Uiso   1.00
O56    O     0.81703   0.08291   0.75481   0.00000  Uiso   1.00
O57    O     0.77036   0.04753   0.66515   0.00000  Uiso   1.00
O58    O     0.80713   0.19738   0.60175   0.00000  Uiso   1.00
O59    O     0.73527   0.18649   0.66468   0.00000  Uiso   1.00
Pr60   Pr    0.37658   0.42291   0.45201   0.00000  Uiso   1.00
Pr61   Pr    0.40355   0.32380   0.36547   0.00000  Uiso   1.00
O62    O     0.32143   0.27940   0.39953   0.00000  Uiso   1.00
O63    O     0.30139   0.35762   0.46741   0.00000  Uiso   1.00
O64    O     0.32644   0.50365   0.48870   0.00000  Uiso   1.00
O65    O     0.39304   0.46341   0.55217   0.00000  Uiso   1.00
O66    O     0.44096   0.34914   0.46247   0.00000  Uiso   1.00
O67    O     0.43843   0.41267   0.54465   0.00000  Uiso   1.00
C68    C     0.32584   0.37621   0.28589   0.00000  Uiso   1.00
C69    C     0.28849   0.30530   0.43806   0.00000  Uiso   1.00
C70    C     0.35117   0.50156   0.54490   0.00000  Uiso   1.00
C71    C     0.43260   0.22183   0.30209   0.00000  Uiso   1.00
C72    C     0.48556   0.44647   0.37443   0.00000  Uiso   1.00
C73    C     0.46314   0.36858   0.52336   0.00000  Uiso   1.00
O74    O     0.45579   0.46903   0.41782   0.00000  Uiso   1.00
O75    O     0.47700   0.39204   0.34727   0.00000  Uiso   1.00
O76    O     0.45549   0.23890   0.35748   0.00000  Uiso   1.00
O77    O     0.39721   0.25919   0.27620   0.00000  Uiso   1.00
O78    O     0.34102   0.40023   0.34818   0.00000  Uiso   1.00
O79    O     0.34877   0.32840   0.27176   0.00000  Uiso   1.00
C80    C     0.47328   0.80792   0.98445   0.00000  Uiso   1.00
C81    C     0.36417   0.81607   0.94486   0.00000  Uiso   1.00
C82    C     0.36873   0.76423   0.97149   0.00000  Uiso   1.00
S83    S     0.29343   0.83674  -0.08562   0.00000  Uiso   1.00
S84    S     0.30341   0.72336   0.97297   0.00000  Uiso   1.00
S85    S     0.42936   0.85775  -0.05505   0.00000  Uiso   1.00
S86    S     0.43916   0.74471   1.00400   0.00000  Uiso   1.00
C87    C     0.25916   0.77451   0.93592   0.00000  Uiso   1.00
C88    C     0.44444   0.16217   0.27360   0.00000  Uiso   1.00
C89    C     0.47401   0.05800   0.26119   0.00000  Uiso   1.00
C90    C     0.46415   0.07591   0.20361   0.00000  Uiso   1.00
S91    S     0.50047   0.98864   0.27010   0.00000  Uiso   1.00
S92    S     0.47998   0.02824   0.14397   0.00000  Uiso   1.00
S93    S     0.46417   0.10779   0.32168   0.00000  Uiso   1.00
S94    S     0.44119   0.14658   0.19511   0.00000  Uiso   1.00
C95    C     0.50417   0.97529   0.19246   0.00000  Uiso   1.00
C96    C     0.70398   0.24671   0.58921   0.00000  Uiso   1.00
C97    C     0.59685   0.26797   0.55905   0.00000  Uiso   1.00
C98    C     0.62368   0.32051   0.58687   0.00000  Uiso   1.00
S99    S     0.52130   0.26500   0.53154   0.00000  Uiso   1.00
S100   S     0.57877   0.38100   0.59257   0.00000  Uiso   1.00
S101   S     0.63982   0.20719   0.55312   0.00000  Uiso   1.00
S102   S     0.69985   0.32114   0.61489   0.00000  Uiso   1.00
C103   C     0.51551   0.33949   0.55447   0.00000  Uiso   1.00
C104   C     0.76750  -0.01077   0.75272   0.00000  Uiso   1.00
C105   C     0.70227   0.95388   0.82270   0.00000  Uiso   1.00
C106   C     0.76004   0.95934   0.85440   0.00000  Uiso   1.00
S107   S     0.64396   0.94000   0.86192   0.00000  Uiso   1.00
S108   S     0.77021   0.95730   0.93201   0.00000  Uiso   1.00
S109   S     0.69093  -0.03043   0.74810   0.00000  Uiso   1.00
S110   S     0.81817   0.97634   0.81664   0.00000  Uiso   1.00
C111   C     0.69256   0.94797   0.93119   0.00000  Uiso   1.00
C112   C     0.77561   0.01799   0.48901   0.00000  Uiso   1.00
C113   C     0.76306   0.93438   0.40684   0.00000  Uiso   1.00
C114   C     0.74165   0.98263   0.37958   0.00000  Uiso   1.00
S115   S     0.75978   0.86790   0.36236   0.00000  Uiso   1.00
S116   S     0.71408   0.97403   0.30275   0.00000  Uiso   1.00
S117   S     0.79126   0.94344   0.48372   0.00000  Uiso   1.00
S118   S     0.74332   0.04881   0.42406   0.00000  Uiso   1.00
C119   C     0.72717   0.89905   0.29755   0.00000  Uiso   1.00
C120   C     0.32883   0.53442   0.59821   0.00000  Uiso   1.00
C121   C     0.30309   0.55730   0.70278   0.00000  Uiso   1.00
C122   C     0.25880   0.58075   0.66361   0.00000  Uiso   1.00
S123   S     0.29750   0.56347   0.77973   0.00000  Uiso   1.00
S124   S     0.20029   0.61401   0.69332   0.00000  Uiso   1.00
S125   S     0.36037   0.52163   0.67199   0.00000  Uiso   1.00
S126   S     0.26309   0.57390   0.58686   0.00000  Uiso   1.00
C127   C     0.23104   0.60169   0.76739   0.00000  Uiso   1.00
C128   C     0.20703   0.51817   0.07995   0.00000  Uiso   1.00
C129   C     0.24887   0.48779   0.18033   0.00000  Uiso   1.00
C130   C     0.23998   0.43692   0.14054   0.00000  Uiso   1.00
S131   S     0.28078   0.48335   0.25445   0.00000  Uiso   1.00
S132   S     0.26343   0.37198   0.16705   0.00000  Uiso   1.00
S133   S     0.23081   0.55345   0.15280   0.00000  Uiso   1.00
S134   S     0.20892   0.44192   0.06603   0.00000  Uiso   1.00
C135   C     0.28921   0.40794   0.23936   0.00000  Uiso   1.00
C136   C     0.23056   0.27662   0.44577   0.00000  Uiso   1.00
C137   C     0.15109   0.21091   0.47082   0.00000  Uiso   1.00
C138   C     0.12230   0.26027   0.45275   0.00000  Uiso   1.00
S139   S     0.10947   0.15853   0.49814   0.00000  Uiso   1.00
S140   S     0.04638   0.26611   0.45679   0.00000  Uiso   1.00
S141   S     0.22786   0.20680   0.46960   0.00000  Uiso   1.00
S142   S     0.16489   0.31577   0.43205   0.00000  Uiso   1.00
C143   C     0.04464   0.19997   0.48842   0.00000  Uiso   1.00
C144   C     0.98642   0.02155   0.66848   0.00000  Uiso   1.00
C145   C     1.04401   0.93686   0.70354   0.00000  Uiso   1.00
C146   C     0.98372   0.92181   0.70232   0.00000  Uiso   1.00
S147   S     0.09693   0.88915   0.73181   0.00000  Uiso   1.00
S148   S     0.96445   0.85607   0.72677   0.00000  Uiso   1.00
S149   S     1.06234   0.00401   0.68036   0.00000  Uiso   1.00
S150   S     0.93079   0.97125   0.68010   0.00000  Uiso   1.00
C151   C     1.04009   0.84108   0.74636   0.00000  Uiso   1.00
C152   C     0.01681   0.50018   0.84380   0.00000  Uiso   1.00
C153   C    -0.01590   0.41571   0.76642   0.00000  Uiso   1.00
C154   C     0.96538   0.40123   0.81943   0.00000  Uiso   1.00
S155   S    -0.02589   0.36406   0.70401   0.00000  Uiso   1.00
S156   S     0.93120   0.33276   0.81944   0.00000  Uiso   1.00
S157   S     0.02025   0.48302   0.76657   0.00000  Uiso   1.00
S158   S     0.98120   0.45095   0.88346   0.00000  Uiso   1.00
C159   C     0.94098   0.31325   0.74383   0.00000  Uiso   1.00
C160   C     0.76211   0.72673   0.05585   0.00000  Uiso   1.00
C161   C     0.85002   0.72042   0.99922   0.00000  Uiso   1.00
C162   C     0.86991   0.69950   0.05399   0.00000  Uiso   1.00
S163   S     0.90039   0.73080   0.95023   0.00000  Uiso   1.00
S164   S     0.94547   0.68136   0.06797   0.00000  Uiso   1.00
S165   S     0.77648   0.73935   0.98337   0.00000  Uiso   1.00
S166   S     0.81862   0.69703   0.10551   0.00000  Uiso   1.00
C167   C     0.95976   0.70514   0.99893   0.00000  Uiso   1.00
C168   C     0.57855   0.65863   0.26512   0.00000  Uiso   1.00
C169   C     0.56677   0.58695   0.33835   0.00000  Uiso   1.00
C170   C     0.55621   0.55570   0.28118   0.00000  Uiso   1.00
S171   S     0.55278   0.55203   0.39947   0.00000  Uiso   1.00
S172   S     0.53071   0.48359   0.27436   0.00000  Uiso   1.00
S173   S     0.58633   0.66092   0.34420   0.00000  Uiso   1.00
S174   S     0.56116   0.59231   0.21900   0.00000  Uiso   1.00
C175   C     0.52692   0.48806   0.35205   0.00000  Uiso   1.00
loop_
_geom_bond_atom_site_label_1
_geom_bond_atom_site_label_2
_geom_bond_distance
_geom_bond_site_symmetry_2
_ccdc_geom_bond_type
Pr0    O3      2.266   .     S
Pr0    O5      2.272   .     S
Pr0    O6      2.240   .     S
Pr0    O7      2.313   .     S
Pr0    O14     2.253   .     S
Pr0    O18     2.320   .     S
Pr0    O4      2.292   1_455 S
Pr1    O2      2.333   .     S
Pr1    O6      2.202   .     S
Pr1    O15     2.330   .     S
Pr1    O16     2.261   .     S
Pr1    O17     2.287   .     S
Pr1    O18     2.267   .     S
Pr1    O19     2.229   .     S
O2     C9      1.303   .     A
O3     C9      1.297   .     A
O4     Pr0     2.292   1_655 S
O4     C10     1.279   1_655 A
O5     C10     1.272   .     A
O6     C13     1.379   .     S
O7     C13     1.221   .     D
C8     O18     1.421   .     S
C8     O19     1.225   .     D
C8     C152    1.464   .     S
C9     C167    1.478   1_455 S
C10    O4      1.279   1_455 A
C10    C151    1.461   1_455 S
C11    C128    1.464   .     S
C11    O16     1.275   1_554 A
C11    O17     1.283   1_554 A
C12    O14     1.286   .     A
C12    O15     1.302   .     A
C12    C127    1.468   .     S
C13    C87     1.471   .     S
O16    C11     1.275   1_556 A
O17    C11     1.283   1_556 A
Pr20   O23     2.248   .     S
Pr20   O24     2.284   .     S
Pr20   O26     2.249   .     S
Pr20   O34     2.247   .     S
Pr20   O38     2.319   .     S
Pr20   O25     2.262   1_554 S
Pr20   O27     2.294   1_554 S
Pr21   O22     2.328   .     S
Pr21   O26     2.223   .     S
Pr21   O35     2.344   .     S
Pr21   O36     2.252   .     S
Pr21   O37     2.291   .     S
Pr21   O38     2.259   .     S
Pr21   O39     2.229   .     S
O22    C29     1.292   .     A
O23    C29     1.281   .     A
O24    C30     1.281   1_554 A
O25    C30     1.278   .     A
O25    Pr20    2.262   1_556 S
O26    C33     1.391   .     S
O27    Pr20    2.294   1_556 S
O27    C33     1.225   1_556 D
C28    O38     1.423   .     S
C28    O39     1.226   .     D
C28    C119    1.468   .     S
C29    C160    1.473   .     S
C30    C111    1.465   .     S
C30    O24     1.281   1_556 A
C31    O36     1.274   .     A
C31    O37     1.282   .     A
C31    C168    1.465   .     S
C32    O34     1.295   .     A
C32    O35     1.310   .     A
C32    C95     1.466   .     S
C33    O27     1.225   1_554 D
C33    C80     1.469   1_554 S
Pr40   O43     2.258   .     S
Pr40   O44     2.283   .     S
Pr40   O46     2.243   .     S
Pr40   O47     2.324   .     S
Pr40   O54     2.239   .     S
Pr40   O58     2.323   .     S
Pr40   O45     2.264   1_655 S
Pr41   O42     2.330   .     S
Pr41   O46     2.207   .     S
Pr41   O55     2.366   .     S
Pr41   O56     2.228   .     S
Pr41   O57     2.315   .     S
Pr41   O58     2.229   .     S
Pr41   O59     2.212   .     S
O42    C49     1.294   .     A
O43    C49     1.284   .     A
O44    C50     1.280   .     A
O45    Pr40    2.264   1_455 S
O45    C50     1.274   1_455 A
O46    C53     1.375   .     S
O47    C53     1.224   .     D
C48    O58     1.424   .     S
C48    O59     1.232   .     D
C48    C96     1.441   .     S
C49    C159    1.472   .     S
C50    O45     1.274   1_655 A
C50    C143    1.463   1_655 S
C51    O56     1.270   .     A
C51    O57     1.280   .     A
C51    C104    1.462   .     S
C52    O54     1.285   .     A
C52    O55     1.308   .     A
C52    C112    1.465   .     S
C53    C144    1.465   .     S
Pr60   O63     2.277   .     S
Pr60   O64     2.281   .     S
Pr60   O65     2.268   .     S
Pr60   O66     2.215   .     S
Pr60   O67     2.318   .     S
Pr60   O74     2.269   .     S
Pr60   O78     2.304   .     S
Pr61   O62     2.301   .     S
Pr61   O66     2.184   .     S
Pr61   O75     2.313   .     S
Pr61   O76     2.252   .     S
Pr61   O77     2.302   .     S
Pr61   O78     2.256   .     S
Pr61   O79     2.246   .     S
O62    C69     1.292   .     A
O63    C69     1.289   .     A
O64    C70     1.283   .     A
O65    C70     1.278   .     A
O66    C73     1.379   .     S
O67    C73     1.224   .     D
C68    O78     1.408   .     S
C68    O79     1.228   .     D
C68    C135    1.466   .     S
C69    C136    1.457   .     S
C70    C120    1.468   .     S
C71    O76     1.266   .     A
C71    O77     1.281   .     A
C71    C88     1.466   .     S
C72    O74     1.298   .     A
C72    O75     1.304   .     A
C72    C175    1.462   .     S
C73    C103    1.458   .     S
C80    S86     1.719   .     A
C80    S85     1.720   1_556 A
C80    C33     1.469   1_556 S
C81    C82     1.360   .     A
C81    S83     1.699   1_556 A
C81    S85     1.699   1_556 A
C82    S84     1.698   .     A
C82    S86     1.698   .     A
S83    C81     1.699   1_554 A
S83    C87     1.720   1_554 A
S84    C87     1.720   .     A
S85    C80     1.720   1_554 A
S85    C81     1.699   1_554 A
C87    S83     1.720   1_556 A
C88    S93     1.724   .     A
C88    S94     1.714   .     A
C89    C90     1.358   .     A
C89    S93     1.688   .     A
C89    S91     1.700   1_545 A
C90    S92     1.685   .     A
C90    S94     1.702   .     A
S91    C95     1.714   .     A
S91    C89     1.700   1_565 A
S92    C95     1.725   1_545 A
C95    S92     1.725   1_565 A
C96    S101    1.703   .     A
C96    S102    1.721   .     A
C97    C98     1.357   .     A
C97    S99     1.684   .     A
C97    S101    1.684   .     A
C98    S100    1.704   .     A
C98    S102    1.701   .     A
S99    C103    1.714   .     A
S100   C103    1.722   .     A
C104   S109    1.720   .     A
C104   S110    1.719   1_545 A
C105   C106    1.357   .     A
C105   S107    1.685   .     A
C105   S109    1.698   1_565 A
C106   S108    1.693   .     A
C106   S110    1.679   .     A
S107   C111    1.722   .     A
S108   C111    1.714   .     A
S109   C105    1.698   1_545 A
S110   C104    1.719   1_565 A
C112   S118    1.722   .     A
C112   S117    1.717   1_545 A
C113   C114    1.357   .     A
C113   S115    1.695   .     A
C113   S117    1.704   .     A
C114   S116    1.700   .     A
C114   S118    1.692   1_565 A
S115   C119    1.725   .     A
S116   C119    1.715   .     A
S117   C112    1.717   1_565 A
S118   C114    1.692   1_545 A
C120   S125    1.726   .     A
C120   S126    1.715   .     A
C121   C122    1.359   .     A
C121   S123    1.703   .     A
C121   S125    1.691   .     A
C122   S124    1.679   .     A
C122   S126    1.693   .     A
S123   C127    1.715   .     A
S124   C127    1.724   .     A
C128   S133    1.716   .     A
C128   S134    1.716   .     A
C129   C130    1.359   .     A
C129   S131    1.693   .     A
C129   S133    1.691   .     A
C130   S132    1.695   .     A
C130   S134    1.698   .     A
S131   C135    1.716   .     A
S132   C135    1.719   .     A
C136   S141    1.713   .     A
C136   S142    1.715   .     A
C137   C138    1.359   .     A
C137   S139    1.690   .     A
C137   S141    1.697   .     A
C138   S140    1.692   .     A
C138   S142    1.687   .     A
S139   C143    1.721   .     A
S140   C143    1.712   .     A
C143   C50     1.463   1_455 S
C144   S149    1.714   .     A
C144   S150    1.716   1_545 A
C145   C146    1.359   .     A
C145   S147    1.698   1_655 A
C145   S149    1.706   1_565 A
C146   S148    1.695   .     A
C146   S150    1.686   .     A
S147   C145    1.698   1_455 A
S147   C151    1.724   1_455 A
S148   C151    1.708   .     A
S149   C145    1.706   1_545 A
S150   C144    1.716   1_565 A
C151   S147    1.724   1_655 A
C151   C10     1.461   1_655 S
C152   S157    1.712   .     A
C152   S158    1.723   1_455 A
C153   S155    1.688   .     A
C153   S157    1.699   .     A
C153   C154    1.358   1_455 A
C154   S156    1.703   .     A
C154   S158    1.694   .     A
C154   C153    1.358   1_655 A
S155   C159    1.722   1_455 A
S156   C159    1.717   .     A
S158   C152    1.723   1_655 A
C159   S155    1.722   1_655 A
C160   S166    1.728   .     A
C160   S165    1.717   1_554 A
C161   S163    1.680   .     A
C161   S165    1.679   .     A
C161   C162    1.356   1_556 A
C162   S164    1.713   .     A
C162   S166    1.712   .     A
C162   C161    1.356   1_554 A
S163   C167    1.717   .     A
S164   C167    1.728   1_554 A
S165   C160    1.717   1_556 A
C167   S164    1.728   1_556 A
C167   C9      1.478   1_655 S
C168   S173    1.716   .     A
C168   S174    1.719   .     A
C169   C170    1.361   .     A
C169   S171    1.687   .     A
C169   S173    1.701   .     A
C170   S172    1.693   .     A
C170   S174    1.684   .     A
S171   C175    1.723   .     A
S172   C175    1.713   .     A
