data_lcy+N123+E15
_audit_creation_date              2025-01-21
_audit_creation_method            'Materials Studio'
_symmetry_space_group_name_H-M    'P1'
_symmetry_Int_Tables_number       1
_symmetry_cell_setting            triclinic
loop_
_symmetry_equiv_pos_as_xyz
  x,y,z
_cell_length_a                    18.1258
_cell_length_b                    17.1296
_cell_length_c                    18.7075
_cell_angle_alpha                 90.7235
_cell_angle_beta                  106.0860
_cell_angle_gamma                 95.8349
loop_
_atom_site_label
_atom_site_type_symbol
_atom_site_fract_x
_atom_site_fract_y
_atom_site_fract_z
_atom_site_U_iso_or_equiv
_atom_site_adp_type
_atom_site_occupancy
Ce0    Ce    0.19255   0.58311   0.82489   0.00000  Uiso   1.00
Ce1    Ce    0.08316   0.61327   0.93267   0.00000  Uiso   1.00
C2     C     0.23312   0.69451   0.96399   0.00000  Uiso   1.00
C3     C     0.27017   0.56565   0.72176   0.00000  Uiso   1.00
C4     C     0.06220   0.71141   0.78051   0.00000  Uiso   1.00
C5     C     0.05246   0.48729   0.80115   0.00000  Uiso   1.00
C6     C     0.97340   0.61804   0.00159   0.00000  Uiso   1.00
C7     C     0.21502   0.49841   0.99282   0.00000  Uiso   1.00
O8     O     0.20640   0.66678   0.01118   0.00000  Uiso   1.00
O9     O     0.17992   0.68329   0.89778   0.00000  Uiso   1.00
O10    O     0.28087   0.62717   0.76412   0.00000  Uiso   1.00
O11    O     0.22415   0.51044   0.73557   0.00000  Uiso   1.00
O12    O     0.11473   0.67554   0.76221   0.00000  Uiso   1.00
O13    O     0.03274   0.69135   0.83423   0.00000  Uiso   1.00
O14    O     0.07409   0.51611   0.75139   0.00000  Uiso   1.00
O15    O     0.10367   0.51126   0.86676   0.00000  Uiso   1.00
O16    O     0.97771   0.55916  -0.03867   0.00000  Uiso   1.00
O17    O     0.02789   0.67428   0.01075   0.00000  Uiso   1.00
O18    O     0.15923   0.53157   0.00645   0.00000  Uiso   1.00
O19    O     0.23795   0.50612   0.93215   0.00000  Uiso   1.00
Ce20   Ce    0.57785   0.96179   0.11619   0.00000  Uiso   1.00
Ce21   Ce    0.67575   0.83421   0.09640   0.00000  Uiso   1.00
C22    C     0.51728   0.80054   0.03211   0.00000  Uiso   1.00
C23    C     0.50283   0.08169   0.14143   0.00000  Uiso   1.00
C24    C     0.70233   1.00200   0.02245   0.00000  Uiso   1.00
C25    C     0.67924   0.97240   0.24780   0.00000  Uiso   1.00
C26    C     0.76215   0.72351   0.07737   0.00000  Uiso   1.00
C27    C     0.56471   0.79964   0.20472   0.00000  Uiso   1.00
O28    O     0.55711   0.75546   0.06988   0.00000  Uiso   1.00
O29    O     0.56015   0.86953   0.02417   0.00000  Uiso   1.00
O30    O     0.47541   0.03345   0.08513   0.00000  Uiso   1.00
O31    O     0.56696   0.06659   0.18592   0.00000  Uiso   1.00
O32    O     0.65250   1.03070   0.05051   0.00000  Uiso   1.00
O33    O     0.72096   0.93080   0.02983   0.00000  Uiso   1.00
O34    O     0.63463   0.02263   0.23066   0.00000  Uiso   1.00
O35    O     0.68954   0.93266   0.18542   0.00000  Uiso   1.00
O36    O     0.78143   0.76863   0.13634   0.00000  Uiso   1.00
O37    O     0.69801   0.73333   0.02997   0.00000  Uiso   1.00
O38    O     0.61409   0.77252   0.17521   0.00000  Uiso   1.00
O39    O     0.53382   0.86480   0.18591   0.00000  Uiso   1.00
Ce40   Ce    0.91119   0.12305   0.60766   0.00000  Uiso   1.00
Ce41   Ce    0.79154   0.04409   0.65765   0.00000  Uiso   1.00
C42    C     0.75912  -0.02971   0.52382   0.00000  Uiso   1.00
C43    C     0.96363   0.18546   0.49684   0.00000  Uiso   1.00
C44    C     0.95042  -0.03453   0.70098   0.00000  Uiso   1.00
C45    C     0.93704   0.22051   0.72391   0.00000  Uiso   1.00
C46    C     0.77529   0.07678   0.79674   0.00000  Uiso   1.00
C47    C     0.73770   0.18731   0.56273   0.00000  Uiso   1.00
O48    O     0.72576  -0.04745   0.57050   0.00000  Uiso   1.00
O49    O     0.82033   0.02962   0.54654   0.00000  Uiso   1.00
O50    O     0.97220   0.11674   0.51669   0.00000  Uiso   1.00
O51    O    -0.08332   0.21910   0.52373   0.00000  Uiso   1.00
O52    O     0.97787   0.02604   0.67239   0.00000  Uiso   1.00
O53    O     0.88127  -0.04178   0.70656   0.00000  Uiso   1.00
O54    O     0.98213   0.21707   0.68685   0.00000  Uiso   1.00
O55    O     0.87491   0.15726   0.70943   0.00000  Uiso   1.00
O56    O     0.82782   0.11304   0.77329   0.00000  Uiso   1.00
O57    O     0.73234   0.02732   0.74966   0.00000  Uiso   1.00
O58    O     0.71621   0.13325   0.60131   0.00000  Uiso   1.00
O59    O     0.80768   0.19848   0.55579   0.00000  Uiso   1.00
Ce60   Ce    0.45092   0.45097   0.38197   0.00000  Uiso   1.00
Ce61   Ce    0.32619   0.32098   0.39421   0.00000  Uiso   1.00
C62    C     0.48162   0.29422   0.46199   0.00000  Uiso   1.00
C63    C     0.52810   0.58367   0.35673   0.00000  Uiso   1.00
C64    C     0.34967   0.48458   0.49531   0.00000  Uiso   1.00
C65    C     0.34190   0.45477   0.25330   0.00000  Uiso   1.00
C66    C     0.19000   0.24998   0.39942   0.00000  Uiso   1.00
C67    C     0.42105   0.29112   0.27564   0.00000  Uiso   1.00
O68    O     0.43030   0.24393   0.43412   0.00000  Uiso   1.00
O69    O     0.45177   0.36249   0.46741   0.00000  Uiso   1.00
O70    O     0.55890   0.54153   0.41140   0.00000  Uiso   1.00
O71    O     0.46566   0.55291   0.31149   0.00000  Uiso   1.00
O72    O     0.39524   0.51729   0.45853   0.00000  Uiso   1.00
O73    O     0.31848   0.41233   0.48302   0.00000  Uiso   1.00
O74    O     0.40045   0.50159   0.26861   0.00000  Uiso   1.00
O75    O     0.32836   0.42238   0.31759   0.00000  Uiso   1.00
O76    O     0.19744   0.29005   0.34507   0.00000  Uiso   1.00
O77    O     0.25346   0.23239   0.44367   0.00000  Uiso   1.00
O78    O     0.36138   0.26728   0.29814   0.00000  Uiso   1.00
O79    O     0.47022   0.35226   0.30389   0.00000  Uiso   1.00
N80    N     0.31871   0.79921   0.92823   0.00000  Uiso   1.00
N81    N     0.39220   0.82728   0.94555   0.00000  Uiso   1.00
C82    C     0.43227   0.78588   1.00117   0.00000  Uiso   1.00
C83    C     0.38097   0.72957   0.02135   0.00000  Uiso   1.00
C84    C     0.30921   0.74063   0.97328   0.00000  Uiso   1.00
H85    H     0.39487   0.68557   0.06268   0.00000  Uiso   1.00
H86    H     0.27514   0.82066   0.88636   0.00000  Uiso   1.00
H87    H     0.41488   0.87279   0.91850   0.00000  Uiso   1.00
N88    N     0.39129   0.15852   0.12067   0.00000  Uiso   1.00
N89    N     0.36986   0.21580   0.15582   0.00000  Uiso   1.00
C90    C     0.43051   0.24394   0.21320   0.00000  Uiso   1.00
C91    C     0.49278   0.20327   0.21465   0.00000  Uiso   1.00
C92    C     0.46495   0.14916   0.15535   0.00000  Uiso   1.00
H93    H     0.54740   0.20723   0.25767   0.00000  Uiso   1.00
H94    H     0.35407   0.12343   0.07669   0.00000  Uiso   1.00
H95    H     0.31363   0.23320   0.14178   0.00000  Uiso   1.00
N96    N     0.62221   0.34245   0.48740   0.00000  Uiso   1.00
N97    N     0.69004   0.31396   0.51045   0.00000  Uiso   1.00
C98    C     0.67731   0.23743   0.52525   0.00000  Uiso   1.00
C99    C     0.59808   0.21664   0.50933   0.00000  Uiso   1.00
C100   C     0.56518   0.28446   0.48573   0.00000  Uiso   1.00
H101   H     0.56871   0.16036   0.51725   0.00000  Uiso   1.00
H102   H     0.61519   0.40049   0.47309   0.00000  Uiso   1.00
H103   H     0.74384   0.34759   0.51876   0.00000  Uiso   1.00
N104   N     0.79833   1.10304   0.99237   0.00000  Uiso   1.00
N105   N     0.81762   0.12420   0.93169   0.00000  Uiso   1.00
C106   C     0.76638   0.08509   0.87199   0.00000  Uiso   1.00
C107   C     0.71314   1.03783   0.89611   0.00000  Uiso   1.00
C108   C     0.73452   1.05053   0.97218   0.00000  Uiso   1.00
H109   H     0.66962   0.99396   0.86330   0.00000  Uiso   1.00
H110   H     0.83037   1.12037   0.04696   0.00000  Uiso   1.00
H111   H     0.86748   0.16067   0.93190   0.00000  Uiso   1.00
N112   N     0.63531   0.91113   0.34807   0.00000  Uiso   1.00
N113   N     0.65701  -0.09412   0.42025   0.00000  Uiso   1.00
C114   C     0.72964  -0.05988   0.44622   0.00000  Uiso   1.00
C115   C     0.75669   0.96605   0.38609   0.00000  Uiso   1.00
C116   C     0.69431   0.94434   0.32414   0.00000  Uiso   1.00
H117   H     0.80857   1.00440   0.38745   0.00000  Uiso   1.00
H118   H     0.57808  -0.09175   0.31818   0.00000  Uiso   1.00
H119   H     0.61953  -0.11041   0.45261   0.00000  Uiso   1.00
N120   N     0.35532   0.62018   0.64535   0.00000  Uiso   1.00
N121   N     0.37346   0.60095   0.58476   0.00000  Uiso   1.00
C122   C     0.33594   0.52974   0.55765   0.00000  Uiso   1.00
C123   C     0.29279   0.50247   0.60525   0.00000  Uiso   1.00
C124   C     0.30574   0.56200   0.65983   0.00000  Uiso   1.00
H125   H     0.25624   0.44741   0.60015   0.00000  Uiso   1.00
H126   H     0.37667   0.67250   0.67738   0.00000  Uiso   1.00
H127   H     0.41198   0.63550   0.56248   0.00000  Uiso   1.00
N128   N     0.23913   0.38259   0.14914   0.00000  Uiso   1.00
N129   N     0.21248   0.38869   0.07637   0.00000  Uiso   1.00
C130   C     0.25252   0.45009   0.05400   0.00000  Uiso   1.00
C131   C     0.30701   0.48445   0.11688   0.00000  Uiso   1.00
C132   C     0.29552   0.44086   0.17573   0.00000  Uiso   1.00
H133   H     0.34337   0.53954   0.12091   0.00000  Uiso   1.00
H134   H     0.21713   0.34036   0.18008   0.00000  Uiso   1.00
H135   H     0.16215   0.35649   0.04358   0.00000  Uiso   1.00
N136   N     0.04964   0.30147   0.48560   0.00000  Uiso   1.00
N137   N     0.11139   0.31672   0.46310   0.00000  Uiso   1.00
C138   C     0.12088   0.25334   0.42392   0.00000  Uiso   1.00
C139   C     0.06070   0.19503   0.42094   0.00000  Uiso   1.00
C140   C     0.01534   0.22866   0.45959   0.00000  Uiso   1.00
H141   H     0.05372   0.13494   0.39861   0.00000  Uiso   1.00
H142   H     0.03381   0.33807   0.52253   0.00000  Uiso   1.00
H143   H     0.15074   0.36753   0.47883   0.00000  Uiso   1.00
N144   N     0.10529   0.84652   0.75390   0.00000  Uiso   1.00
N145   N     0.07785   0.91361   0.74033   0.00000  Uiso   1.00
C146   C     1.00020   0.90254   0.72515   0.00000  Uiso   1.00
C147   C     0.97770   0.82282   0.73180   0.00000  Uiso   1.00
C148   C     0.04694   0.78850   0.74847   0.00000  Uiso   1.00
H149   H     0.91963   0.79387   0.72439   0.00000  Uiso   1.00
H150   H     0.16445   0.83974   0.77232   0.00000  Uiso   1.00
H151   H     0.11142   0.96816   0.74351   0.00000  Uiso   1.00
N152   N     0.88546   0.34377   0.74791   0.00000  Uiso   1.00
N153   N     0.91704   0.41760   0.76295   0.00000  Uiso   1.00
C154   C     0.99371   0.41835   0.79151   0.00000  Uiso   1.00
C155   C     0.01176   0.34175   0.79372   0.00000  Uiso   1.00
C156   C     0.94202   0.29543   0.76684   0.00000  Uiso   1.00
H157   H     0.06861   0.32228   0.80501   0.00000  Uiso   1.00
H158   H     0.82732   0.32790   0.71810   0.00000  Uiso   1.00
H159   H     0.88723   0.46746   0.74843   0.00000  Uiso   1.00
N160   N     0.83890   0.57212   1.00014   0.00000  Uiso   1.00
N161   N     0.78223   0.59942   1.02002   0.00000  Uiso   1.00
C162   C     0.81068   0.66606   0.06226   0.00000  Uiso   1.00
C163   C     0.88883   0.68198   0.06874   0.00000  Uiso   1.00
C164   C     0.90440   0.62107   0.02800   0.00000  Uiso   1.00
H165   H     0.92630   0.73543   0.09159   0.00000  Uiso   1.00
H166   H     0.83153   0.52526   0.96108   0.00000  Uiso   1.00
H167   H     0.72390   0.57630   1.00047   0.00000  Uiso   1.00
N168   N     0.50802   0.72058   0.35885   0.00000  Uiso   1.00
N169   N     0.50460   0.77414   0.30779   0.00000  Uiso   1.00
C170   C     0.54712   0.75346   0.26374   0.00000  Uiso   1.00
C171   C     0.57799   0.68457   0.28694   0.00000  Uiso   1.00
C172   C     0.55225   0.66466   0.34761   0.00000  Uiso   1.00
H173   H     0.60889   0.64936   0.25868   0.00000  Uiso   1.00
H174   H     0.47284   0.71810   0.39458   0.00000  Uiso   1.00
H175   H     0.47173   0.82110   0.30180   0.00000  Uiso   1.00
loop_
_geom_bond_atom_site_label_1
_geom_bond_atom_site_label_2
_geom_bond_distance
_geom_bond_site_symmetry_2
_ccdc_geom_bond_type
Ce0    O9      2.247   .     S
Ce0    O10     2.282   .     S
Ce0    O11     2.301   .     S
Ce0    O12     2.336   .     S
Ce0    O14     2.375   .     S
Ce0    O15     2.246   .     S
Ce0    O19     2.411   .     S
Ce1    O9      2.273   .     S
Ce1    O13     2.322   .     S
Ce1    O15     2.246   .     S
Ce1    O8      2.391   1_556 S
Ce1    O16     2.241   1_456 S
Ce1    O17     2.284   1_556 S
Ce1    O18     2.270   1_556 S
C2     O9      1.340   .     S
C2     C84     1.483   .     S
C2     O8      1.200   1_556 D
C3     O10     1.276   .     A
C3     O11     1.274   .     A
C3     C124    1.477   .     S
C4     O12     1.302   .     A
C4     O13     1.297   .     A
C4     C148    1.477   .     S
C5     O14     1.200   .     D
C5     O15     1.347   .     S
C5     C154    1.481   1_455 S
C6     O16     1.273   .     A
C6     C164    1.472   .     S
C6     O17     1.281   1_655 A
C7     O19     1.316   .     A
C7     O18     1.291   1_556 A
C7     C130    1.471   1_556 S
O8     Ce1     2.391   1_554 S
O8     C2      1.200   1_554 D
O16    Ce1     2.241   1_654 S
O17    Ce1     2.284   1_554 S
O17    C6      1.281   1_455 A
O18    Ce1     2.270   1_554 S
O18    C7      1.291   1_554 A
Ce20   O29     2.255   .     S
Ce20   O32     2.317   .     S
Ce20   O35     2.189   .     S
Ce20   O39     2.337   .     S
Ce20   O30     2.275   1_565 S
Ce20   O31     2.262   1_565 S
Ce20   O34     2.288   1_565 S
Ce21   O28     2.344   .     S
Ce21   O29     2.300   .     S
Ce21   O33     2.303   .     S
Ce21   O35     2.300   .     S
Ce21   O36     2.270   .     S
Ce21   O37     2.249   .     S
Ce21   O38     2.292   .     S
C22    O28     1.209   .     D
C22    O29     1.380   .     S
C22    C82     1.482   1_554 S
C23    O30     1.282   .     A
C23    O31     1.281   .     A
C23    C92     1.459   .     S
C24    O32     1.296   .     A
C24    O33     1.297   .     A
C24    C108    1.463   1_554 S
C25    O35     1.410   .     S
C25    C116    1.474   .     S
C25    O34     1.225   1_565 D
C26    O36     1.283   .     A
C26    O37     1.280   .     A
C26    C162    1.459   .     S
C27    O38     1.294   .     A
C27    O39     1.308   .     A
C27    C170    1.453   .     S
O30    Ce20    2.275   1_545 S
O31    Ce20    2.262   1_545 S
O34    Ce20    2.288   1_545 S
O34    C25     1.225   1_545 D
Ce40   O49     2.226   .     S
Ce40   O50     2.279   .     S
Ce40   O52     2.310   .     S
Ce40   O54     2.215   .     S
Ce40   O55     2.268   .     S
Ce40   O59     2.376   .     S
Ce40   O51     2.302   1_655 S
Ce41   O48     2.240   .     S
Ce41   O49     2.295   .     S
Ce41   O53     2.311   .     S
Ce41   O55     2.351   .     S
Ce41   O56     2.345   .     S
Ce41   O57     2.274   .     S
Ce41   O58     2.230   .     S
C42    O48     1.217   .     D
C42    O49     1.394   .     S
C42    C114    1.468   .     S
C43    O50     1.251   .     A
C43    O51     1.280   1_655 A
C43    C140    1.465   1_655 S
C44    O52     1.291   .     A
C44    O53     1.280   .     A
C44    C146    1.471   1_545 S
C45    O54     1.214   .     D
C45    O55     1.446   .     S
C45    C156    1.487   .     S
C46    O56     1.266   .     A
C46    O57     1.252   .     A
C46    C106    1.468   .     S
C47    O58     1.277   .     A
C47    O59     1.306   .     A
C47    C98     1.486   .     S
O51    Ce40    2.302   1_455 S
O51    C43     1.280   1_455 A
Ce60   O69     2.215   .     S
Ce60   O70     2.303   .     S
Ce60   O71     2.240   .     S
Ce60   O72     2.314   .     S
Ce60   O74     2.284   .     S
Ce60   O75     2.215   .     S
Ce60   O79     2.336   .     S
Ce61   O68     2.369   .     S
Ce61   O69     2.341   .     S
Ce61   O73     2.310   .     S
Ce61   O75     2.270   .     S
Ce61   O76     2.263   .     S
Ce61   O77     2.281   .     S
Ce61   O78     2.279   .     S
C62    O68     1.198   .     D
C62    O69     1.352   .     S
C62    C100    1.483   .     S
C63    O70     1.290   .     A
C63    O71     1.270   .     A
C63    C172    1.438   .     S
C64    O72     1.304   .     A
C64    O73     1.297   .     A
C64    C122    1.482   .     S
C65    O74     1.226   .     D
C65    O75     1.403   .     S
C65    C132    1.464   .     S
C66    O76     1.264   .     A
C66    O77     1.284   .     A
C66    C138    1.455   .     S
C67    O78     1.296   .     A
C67    O79     1.306   .     A
C67    C90     1.470   .     S
N80    N81     1.318   .     A
N80    C84     1.347   .     A
N80    H86     1.047   .     S
N81    C82     1.348   .     A
N81    H87     1.046   .     S
C82    C83     1.400   1_556 A
C82    C22     1.482   1_556 S
C83    H85     1.084   .     S
C83    C82     1.400   1_554 A
C83    C84     1.394   1_554 A
C84    C83     1.394   1_556 A
N88    N89     1.322   .     A
N88    C92     1.340   .     A
N88    H94     1.044   .     S
N89    C90     1.349   .     A
N89    H95     1.055   .     S
C90    C91     1.380   .     A
C91    C92     1.383   .     A
C91    H93     1.084   .     S
N96    N97     1.330   .     A
N96    C100    1.352   .     A
N96    H102    1.044   .     S
N97    C98     1.353   .     A
N97    H103    1.052   .     S
C98    C99     1.391   .     A
C99    C100    1.381   .     A
C99    H101    1.085   .     S
N104   C108    1.352   .     A
N104   N105    1.322   1_565 A
N104   H110    1.048   1_556 S
N105   C106    1.356   .     A
N105   H111    1.044   .     S
N105   N104    1.322   1_545 A
C106   C107    1.372   1_545 A
C107   C108    1.376   .     A
C107   H109    1.079   .     S
C107   C106    1.372   1_565 A
C108   C24     1.463   1_556 S
H110   N104    1.048   1_554 S
N112   C116    1.347   .     A
N112   N113    1.305   1_565 A
N112   H118    1.029   1_565 S
N113   C114    1.340   .     A
N113   H119    1.049   .     S
N113   N112    1.305   1_545 A
C114   C115    1.406   1_545 A
C115   C116    1.392   .     A
C115   H117    1.085   .     S
C115   C114    1.406   1_565 A
H118   N112    1.029   1_545 S
N120   N121    1.312   .     A
N120   C124    1.354   .     A
N120   H126    1.048   .     S
N121   C122    1.353   .     A
N121   H127    1.047   .     S
C122   C123    1.395   .     A
C123   C124    1.389   .     A
C123   H125    1.083   .     S
N128   N129    1.322   .     A
N128   C132    1.337   .     A
N128   H134    1.047   .     S
N129   C130    1.354   .     A
N129   H135    1.045   .     S
C130   C131    1.388   .     A
C130   C7      1.471   1_554 S
C131   C132    1.389   .     A
C131   H133    1.084   .     S
N136   N137    1.305   .     A
N136   C140    1.356   .     A
N136   H142    1.043   .     S
N137   C138    1.354   .     A
N137   H143    1.051   .     S
C138   C139    1.391   .     A
C139   C140    1.395   .     A
C139   H141    1.088   .     S
C140   C43     1.465   1_455 S
N144   N145    1.299   .     A
N144   C148    1.357   .     A
N144   H150    1.050   .     S
N145   H151    1.054   .     S
N145   C146    1.349   1_455 A
C146   C147    1.402   .     A
C146   N145    1.349   1_655 A
C146   C44     1.471   1_565 S
C147   H149    1.088   .     S
C147   C148    1.398   1_655 A
C148   C147    1.398   1_455 A
N152   N153    1.327   .     A
N152   C156    1.357   .     A
N152   H158    1.052   .     S
N153   C154    1.342   .     A
N153   H159    1.055   .     S
C154   C155    1.383   1_655 A
C154   C5      1.481   1_655 S
C155   H157    1.081   .     S
C155   C154    1.383   1_455 A
C155   C156    1.384   1_455 A
C156   C155    1.384   1_655 A
N160   N161    1.310   .     A
N160   H166    1.051   .     S
N160   C164    1.352   1_556 A
N161   H167    1.051   .     S
N161   C162    1.351   1_556 A
C162   C163    1.386   .     A
C162   N161    1.351   1_554 A
C163   C164    1.381   .     A
C163   H165    1.089   .     S
C164   N160    1.352   1_554 A
N168   N169    1.326   .     A
N168   C172    1.360   .     A
N168   H174    1.042   .     S
N169   C170    1.341   .     A
N169   H175    1.038   .     S
C170   C171    1.381   .     A
C171   C172    1.376   .     A
C171   H173    1.087   .     S
