data_lcy+N394+E15
_audit_creation_date              2025-01-21
_audit_creation_method            'Materials Studio'
_symmetry_space_group_name_H-M    'P1'
_symmetry_Int_Tables_number       1
_symmetry_cell_setting            triclinic
loop_
_symmetry_equiv_pos_as_xyz
  x,y,z
_cell_length_a                    17.0444
_cell_length_b                    18.4436
_cell_length_c                    17.9267
_cell_angle_alpha                 96.8452
_cell_angle_beta                  103.7975
_cell_angle_gamma                 89.1107
loop_
_atom_site_label
_atom_site_type_symbol
_atom_site_fract_x
_atom_site_fract_y
_atom_site_fract_z
_atom_site_U_iso_or_equiv
_atom_site_adp_type
_atom_site_occupancy
Pr0    Pr    0.06366   0.68610   0.86930   0.00000  Uiso   1.00
Pr1    Pr    0.14176   0.58876   0.99382   0.00000  Uiso   1.00
O2     O     0.03563   0.63308   0.04161   0.00000  Uiso   1.00
O3     O    -0.01559   0.71565   0.95681   0.00000  Uiso   1.00
O4     O     0.96914   0.72501   0.76849   0.00000  Uiso   1.00
O5     O     0.06714   0.79807   0.82782   0.00000  Uiso   1.00
O6     O     0.17126   0.70086   0.96726   0.00000  Uiso   1.00
O7     O     0.13826   0.79228   0.89881   0.00000  Uiso   1.00
C8     C     0.04902   0.51145   0.86074   0.00000  Uiso   1.00
C9     C    -0.01841   0.67874   1.01371   0.00000  Uiso   1.00
C10    C     1.00077   0.78873   0.77620   0.00000  Uiso   1.00
C11    C     0.18163   0.49134   0.09754   0.00000  Uiso   1.00
C12    C     0.21902   0.58827   0.84237   0.00000  Uiso   1.00
C13    C     0.18950   0.77005   0.95089   0.00000  Uiso   1.00
O14    O     0.16196   0.63125   0.81126   0.00000  Uiso   1.00
O15    O     0.22515   0.56462   0.90939   0.00000  Uiso   1.00
O16    O     0.22391   0.54926   0.10335   0.00000  Uiso   1.00
O17    O     0.12489   0.48149   0.03700   0.00000  Uiso   1.00
O18    O     0.02741   0.57677   0.89368   0.00000  Uiso   1.00
O19    O     0.11594   0.49450   0.89310   0.00000  Uiso   1.00
Pr20   Pr    0.63604   0.89342   0.07235   0.00000  Uiso   1.00
Pr21   Pr    0.57227   0.78480   0.15641   0.00000  Uiso   1.00
O22    O     0.67096   0.71653   0.11182   0.00000  Uiso   1.00
O23    O     0.69733   0.79319   0.02784   0.00000  Uiso   1.00
O24    O     0.71451   0.98312   0.04951   0.00000  Uiso   1.00
O25    O     0.61002   0.94474   0.96013   0.00000  Uiso   1.00
O26    O     0.53510   0.80710   0.03582   0.00000  Uiso   1.00
O27    O     0.50812   0.91157   0.99793   0.00000  Uiso   1.00
C28    C     0.68473   0.85904   0.26774   0.00000  Uiso   1.00
C29    C     0.71131   0.73574   0.06381   0.00000  Uiso   1.00
C30    C     0.67091   0.98737   0.98170   0.00000  Uiso   1.00
C31    C     0.51511   0.68667   0.22936   0.00000  Uiso   1.00
C32    C     0.51379   0.95259   0.17629   0.00000  Uiso   1.00
C33    C     0.47748   0.85608   1.00804   0.00000  Uiso   1.00
O34    O     0.56656   0.97030   0.14066   0.00000  Uiso   1.00
O35    O     0.49745   0.88619   0.18510   0.00000  Uiso   1.00
O36    O     0.48074   0.69925   0.16091   0.00000  Uiso   1.00
O37    O     0.57828   0.72535   0.26188   0.00000  Uiso   1.00
O38    O     0.68589   0.85238   0.18947   0.00000  Uiso   1.00
O39    O     0.63715   0.81695   0.28235   0.00000  Uiso   1.00
Pr40   Pr    0.95674   0.15401   0.59944   0.00000  Uiso   1.00
Pr41   Pr    0.79603   0.13912   0.64384   0.00000  Uiso   1.00
O42    O     0.85102   0.24444   0.72255   0.00000  Uiso   1.00
O43    O     0.97640   0.24836   0.69543   0.00000  Uiso   1.00
O44    O     1.04432   0.18527   0.53039   0.00000  Uiso   1.00
O45    O     0.08845   0.12236   0.62478   0.00000  Uiso   1.00
O46    O     0.91826   0.09505   0.69292   0.00000  Uiso   1.00
O47    O     0.98211   0.03317   0.61756   0.00000  Uiso   1.00
C48    C     0.75501   0.23380   0.53904   0.00000  Uiso   1.00
C49    C     0.92050   0.27592   0.72767   0.00000  Uiso   1.00
C50    C     0.10392   0.15389   0.57091   0.00000  Uiso   1.00
C51    C     0.73437   0.08847   0.75909   0.00000  Uiso   1.00
C52    C     0.82915   0.02721   0.50025   0.00000  Uiso   1.00
C53    C     0.94646   0.02803   0.66741   0.00000  Uiso   1.00
O54    O     0.89743   0.06089   0.50779   0.00000  Uiso   1.00
O55    O     0.78079   0.04152   0.54636   0.00000  Uiso   1.00
O56    O     0.80252   0.07160   0.74814   0.00000  Uiso   1.00
O57    O     0.69503   0.12325   0.70731   0.00000  Uiso   1.00
O58    O     0.83185   0.20345   0.56202   0.00000  Uiso   1.00
O59    O     0.70552   0.20585   0.56611   0.00000  Uiso   1.00
Pr60   Pr    0.40230   0.42188   0.51676   0.00000  Uiso   1.00
Pr61   Pr    0.43571   0.31223   0.39243   0.00000  Uiso   1.00
O62    O     0.37685   0.23768   0.45759   0.00000  Uiso   1.00
O63    O     0.34329   0.32305   0.54693   0.00000  Uiso   1.00
O64    O     0.32759   0.50637   0.57321   0.00000  Uiso   1.00
O65    O     0.44010   0.47095   0.64195   0.00000  Uiso   1.00
O66    O     0.51020   0.35114   0.50848   0.00000  Uiso   1.00
O67    O     0.52966   0.46570   0.51280   0.00000  Uiso   1.00
C68    C     0.29387   0.35223   0.31547   0.00000  Uiso   1.00
C69    C     0.34160   0.25740   0.51261   0.00000  Uiso   1.00
C70    C     0.37480   0.50625   0.64056   0.00000  Uiso   1.00
C71    C     0.44618   0.19699   0.29004   0.00000  Uiso   1.00
C72    C     0.45780   0.48382   0.37325   0.00000  Uiso   1.00
C73    C     0.56152   0.40664   0.50759   0.00000  Uiso   1.00
O74    O     0.44304   0.50012   0.44140   0.00000  Uiso   1.00
O75    O     0.46948   0.41720   0.34378   0.00000  Uiso   1.00
O76    O     0.50580   0.21867   0.34638   0.00000  Uiso   1.00
O77    O     0.38580   0.23990   0.27986   0.00000  Uiso   1.00
O78    O     0.33174   0.38873   0.38919   0.00000  Uiso   1.00
O79    O     0.32780   0.29725   0.29461   0.00000  Uiso   1.00
N80    N     0.26800   0.88439  -0.00056   0.00000  Uiso   1.00
N81    N     0.34316   0.90697   0.00896   0.00000  Uiso   1.00
C82    C     0.38981   0.84853  -0.00148   0.00000  Uiso   1.00
C83    C     0.34263   0.78538   0.98400   0.00000  Uiso   1.00
C84    C     0.26527   0.81090  -0.01561   0.00000  Uiso   1.00
H85    H     0.36044   0.72969   0.96972   0.00000  Uiso   1.00
H86    H     0.21901   0.91906   0.00072   0.00000  Uiso   1.00
H87    H     0.36222   0.96169   0.02333   0.00000  Uiso   1.00
N88    N     0.38984   0.01882   0.19201   0.00000  Uiso   1.00
N89    N     0.37247   0.08616   0.21658   0.00000  Uiso   1.00
C90    C     0.44202   0.12426   0.24707   0.00000  Uiso   1.00
C91    C     0.50600   0.07952   0.24174   0.00000  Uiso   1.00
C92    C     0.47062   1.01329   0.20668   0.00000  Uiso   1.00
H93    H     0.56966   0.09328   0.26082   0.00000  Uiso   1.00
H94    H     0.34726   0.97867   0.16334   0.00000  Uiso   1.00
H95    H     0.31408   0.10546   0.21332   0.00000  Uiso   1.00
N96    N     0.65327   0.36349   0.42573   0.00000  Uiso   1.00
N97    N     0.70679   0.31051   0.43347   0.00000  Uiso   1.00
C98    C     0.73568   0.30450   0.50908   0.00000  Uiso   1.00
C99    C     0.69748   0.35682   0.55002   0.00000  Uiso   1.00
C100   C     0.64325   0.39172   0.49593   0.00000  Uiso   1.00
H101   H     0.69275   0.35537   0.60909   0.00000  Uiso   1.00
H102   H     0.61435   0.37111   0.37283   0.00000  Uiso   1.00
H103   H     0.71352   0.27231   0.38756   0.00000  Uiso   1.00
N104   N     0.63133   1.09034   0.91099   0.00000  Uiso   1.00
N105   N     0.64327   1.11341   0.84758   0.00000  Uiso   1.00
C106   C     0.70581   0.07695   0.82768   0.00000  Uiso   1.00
C107   C     0.73595   1.02904   0.88116   0.00000  Uiso   1.00
C108   C     0.68485   1.03836   0.93161   0.00000  Uiso   1.00
H109   H     0.78163   0.98815   0.87907   0.00000  Uiso   1.00
H110   H     0.58238   1.10568   0.93471   0.00000  Uiso   1.00
H111   H     0.60832   1.15281   0.81815   0.00000  Uiso   1.00
N112   N     0.82514   0.89352   0.33743   0.00000  Uiso   1.00
N113   N     0.86310   0.93554   0.40014   0.00000  Uiso   1.00
C114   C     0.80781   0.96945   0.43449   0.00000  Uiso   1.00
C115   C     0.73068   0.94790   0.39139   0.00000  Uiso   1.00
C116   C     0.74485   0.90124   0.32916   0.00000  Uiso   1.00
H117   H     0.67310  -0.03393   0.40188   0.00000  Uiso   1.00
H118   H     0.85385   0.86011   0.30092   0.00000  Uiso   1.00
H119   H     0.92607   0.94072   0.41890   0.00000  Uiso   1.00
N120   N     0.34670   0.52468   0.83241   0.00000  Uiso   1.00
N121   N     0.38919   0.50664   0.78036   0.00000  Uiso   1.00
C122   C     0.35256   0.53291   0.71363   0.00000  Uiso   1.00
C123   C     0.28257   0.56974   0.72369   0.00000  Uiso   1.00
C124   C     0.28151   0.56327   0.80042   0.00000  Uiso   1.00
H125   H     0.23640   0.59344   0.68021   0.00000  Uiso   1.00
H126   H     0.35919   0.50619   0.88675   0.00000  Uiso   1.00
H127   H     0.43749   0.47004   0.78772   0.00000  Uiso   1.00
N128   N     0.18761   0.33482   0.19690   0.00000  Uiso   1.00
N129   N     0.16582   0.36990   0.13555   0.00000  Uiso   1.00
C130   C     0.19329   0.43879   0.15441   0.00000  Uiso   1.00
C131   C     0.23362   0.44872   0.23181   0.00000  Uiso   1.00
C132   C     0.22967   0.38067   0.25676   0.00000  Uiso   1.00
H133   H     0.26794   0.49602   0.26259   0.00000  Uiso   1.00
H134   H     0.18309   0.27819   0.19498   0.00000  Uiso   1.00
H135   H     0.13852   0.34546   0.08002   0.00000  Uiso   1.00
N136   N     0.21888   0.10505   0.51837   0.00000  Uiso   1.00
N137   N     0.28337   0.13287   0.50275   0.00000  Uiso   1.00
C138   C     0.29135   0.20359   0.53364   0.00000  Uiso   1.00
C139   C     0.22961   0.22151   0.57016   0.00000  Uiso   1.00
C140   C     0.18536   0.15790   0.55934   0.00000  Uiso   1.00
H141   H     0.21298   0.27528   0.59271   0.00000  Uiso   1.00
H142   H     0.19511   0.05255   0.49676   0.00000  Uiso   1.00
H143   H     0.31748   0.10566   0.46670   0.00000  Uiso   1.00
N144   N     0.88223   0.85470   0.70442   0.00000  Uiso   1.00
N145   N     0.86753   0.92024   0.68131   0.00000  Uiso   1.00
C146   C     0.93761  -0.04218   0.69589   0.00000  Uiso   1.00
C147   C     0.00006   0.91379   0.72870   0.00000  Uiso   1.00
C148   C     0.96245   0.84900   0.73385   0.00000  Uiso   1.00
H149   H     0.06382   0.92789   0.74775   0.00000  Uiso   1.00
H150   H     0.83760   0.81550   0.70104   0.00000  Uiso   1.00
H151   H     0.81081  -0.06182   0.65432   0.00000  Uiso   1.00
N152   N     0.87652   0.39787   0.77742   0.00000  Uiso   1.00
N153   N     0.91005   0.46267   0.80506   0.00000  Uiso   1.00
C154   C     0.99040   0.45798   0.81161   0.00000  Uiso   1.00
C155   C     0.00875   0.38738   0.78699   0.00000  Uiso   1.00
C156   C     0.93503   0.35085   0.76649   0.00000  Uiso   1.00
H157   H     0.06740   0.36533   0.78575   0.00000  Uiso   1.00
H158   H     0.81483   0.38641   0.76686   0.00000  Uiso   1.00
H159   H     0.87896   0.50766   0.82325   0.00000  Uiso   1.00
N160   N     0.89700   0.64099   0.09888   0.00000  Uiso   1.00
N161   N     0.82234   0.65028   0.10688   0.00000  Uiso   1.00
C162   C     0.78519   0.69656   0.05729   0.00000  Uiso   1.00
C163   C     0.83846   0.71761   1.01620   0.00000  Uiso   1.00
C164   C     0.90887   0.68196   0.04475   0.00000  Uiso   1.00
H165   H     0.82768   0.75574   0.97336   0.00000  Uiso   1.00
H166   H     0.93887   0.60752   0.13050   0.00000  Uiso   1.00
H167   H     0.79901   0.62811   0.14809   0.00000  Uiso   1.00
N168   N     0.39494   0.59516   0.32634   0.00000  Uiso   1.00
N169   N     0.40992   0.64887   0.28951   0.00000  Uiso   1.00
C170   C     0.47974   0.63568   0.26879   0.00000  Uiso   1.00
C171   C     0.51056   0.56938   0.29183   0.00000  Uiso   1.00
C172   C     0.45435   0.54584   0.32861   0.00000  Uiso   1.00
H173   H     0.56653   0.54383   0.28534   0.00000  Uiso   1.00
H174   H     0.34623   0.59390   0.35207   0.00000  Uiso   1.00
H175   H     0.37438   0.69501   0.28140   0.00000  Uiso   1.00
loop_
_geom_bond_atom_site_label_1
_geom_bond_atom_site_label_2
_geom_bond_distance
_geom_bond_site_symmetry_2
_ccdc_geom_bond_type
Pr0    O3      2.317   .     S
Pr0    O5      2.283   .     S
Pr0    O6      2.211   .     S
Pr0    O7      2.290   .     S
Pr0    O14     2.333   .     S
Pr0    O18     2.240   .     S
Pr0    O4      2.294   1_455 S
Pr1    O6      2.266   .     S
Pr1    O15     2.314   .     S
Pr1    O18     2.307   .     S
Pr1    O19     2.318   .     S
Pr1    O2      2.281   1_556 S
Pr1    O16     2.312   1_556 S
Pr1    O17     2.255   1_556 S
O2     Pr1     2.281   1_554 S
O2     C9      1.290   1_554 A
O3     C9      1.302   .     A
O4     C10     1.279   .     A
O4     Pr0     2.294   1_655 S
O5     C10     1.278   1_455 A
O6     C13     1.399   .     S
O7     C13     1.222   .     D
C8     O18     1.362   .     S
C8     O19     1.205   .     D
C8     C154    1.466   1_455 S
C9     O2      1.290   1_556 A
C9     C164    1.472   1_456 S
C10    C148    1.477   .     S
C10    O5      1.278   1_655 A
C11    O16     1.278   .     A
C11    O17     1.266   .     A
C11    C130    1.467   .     S
C12    O14     1.307   .     A
C12    O15     1.307   .     A
C12    C124    1.482   .     S
C13    C84     1.466   1_556 S
O16    Pr1     2.312   1_554 S
O17    Pr1     2.255   1_554 S
Pr20   O23     2.265   .     S
Pr20   O24     2.277   .     S
Pr20   O26     2.285   .     S
Pr20   O34     2.267   .     S
Pr20   O38     2.283   .     S
Pr20   O25     2.270   1_554 S
Pr20   O27     2.311   1_554 S
Pr21   O22     2.322   .     S
Pr21   O26     2.190   .     S
Pr21   O35     2.323   .     S
Pr21   O36     2.258   .     S
Pr21   O37     2.277   .     S
Pr21   O38     2.238   .     S
Pr21   O39     2.277   .     S
O22    C29     1.304   .     A
O23    C29     1.295   .     A
O24    C30     1.275   1_554 A
O25    C30     1.267   .     A
O25    Pr20    2.270   1_556 S
O26    C33     1.369   1_554 S
O27    C33     1.208   .     D
O27    Pr20    2.311   1_556 S
C28    O38     1.399   .     S
C28    O39     1.224   .     D
C28    C116    1.467   .     S
C29    C162    1.464   .     S
C30    C108    1.434   .     S
C30    O24     1.275   1_556 A
C31    O36     1.274   .     A
C31    O37     1.278   .     A
C31    C170    1.458   .     S
C32    O34     1.287   .     A
C32    O35     1.296   .     A
C32    C92     1.453   .     S
C33    O26     1.369   1_556 S
C33    C82     1.470   1_556 S
Pr40   O43     2.265   .     S
Pr40   O44     2.274   .     S
Pr40   O46     2.324   .     S
Pr40   O47     2.310   .     S
Pr40   O54     2.293   .     S
Pr40   O58     2.284   .     S
Pr40   O45     2.263   1_655 S
Pr41   O42     2.327   .     S
Pr41   O46     2.240   .     S
Pr41   O55     2.326   .     S
Pr41   O56     2.348   .     S
Pr41   O57     2.318   .     S
Pr41   O58     2.190   .     S
Pr41   O59     2.272   .     S
O42    C49     1.306   .     A
O43    C49     1.295   .     A
O44    C50     1.275   1_655 A
O45    C50     1.265   .     A
O45    Pr40    2.263   1_455 S
O46    C53     1.386   .     S
O47    C53     1.207   .     D
C48    O58     1.405   .     S
C48    O59     1.217   .     D
C48    C98     1.472   .     S
C49    C156    1.468   .     S
C50    C140    1.456   .     S
C50    O44     1.275   1_455 A
C51    O56     1.252   .     A
C51    O57     1.247   .     A
C51    C106    1.465   .     S
C52    O54     1.298   .     A
C52    O55     1.303   .     A
C52    C114    1.471   1_545 S
C53    C146    1.470   .     S
Pr60   O63     2.275   .     S
Pr60   O64     2.292   .     S
Pr60   O65     2.262   .     S
Pr60   O66     2.262   .     S
Pr60   O67     2.348   .     S
Pr60   O74     2.309   .     S
Pr60   O78     2.330   .     S
Pr61   O62     2.291   .     S
Pr61   O66     2.206   .     S
Pr61   O75     2.349   .     S
Pr61   O76     2.270   .     S
Pr61   O77     2.269   .     S
Pr61   O78     2.242   .     S
Pr61   O79     2.213   .     S
O62    C69     1.287   .     A
O63    C69     1.289   .     A
O64    C70     1.282   .     A
O65    C70     1.277   .     A
O66    C73     1.361   .     S
O67    C73     1.213   .     D
C68    O78     1.418   .     S
C68    O79     1.224   .     D
C68    C132    1.464   .     S
C69    C138    1.460   .     S
C70    C122    1.476   .     S
C71    O76     1.280   .     A
C71    O77     1.280   .     A
C71    C90     1.459   .     S
C72    O74     1.305   .     A
C72    O75     1.310   .     A
C72    C172    1.465   .     S
C73    C100    1.474   .     S
N80    N81     1.319   .     A
N80    C84     1.350   .     A
N80    H86     1.047   .     S
N81    C82     1.351   .     A
N81    H87     1.048   .     S
C82    C83     1.388   1_554 S
C82    C33     1.470   1_554 S
C83    H85     1.085   .     S
C83    C82     1.388   1_556 S
C83    C84     1.394   1_556 D
C84    C83     1.394   1_554 D
C84    C13     1.466   1_554 S
N88    N89     1.321   .     A
N88    C92     1.343   1_545 A
N88    H94     1.043   1_545 S
N89    C90     1.350   .     A
N89    H95     1.043   .     S
C90    C91     1.372   .     A
C91    H93     1.081   .     S
C91    C92     1.382   1_545 A
C92    N88     1.343   1_565 A
C92    C91     1.382   1_565 A
H94    N88     1.043   1_565 S
N96    N97     1.323   .     A
N96    C100    1.352   .     A
N96    H102    1.043   .     S
N97    C98     1.345   .     A
N97    H103    1.045   .     S
C98    C99     1.390   .     A
C99    C100    1.383   .     A
C99    H101    1.084   .     S
N104   N105    1.320   .     A
N104   C108    1.336   .     A
N104   H110    1.044   .     S
N105   H111    1.044   .     S
N105   C106    1.348   1_565 A
C106   N105    1.348   1_545 A
C106   C107    1.384   1_545 A
C107   C108    1.393   .     A
C107   H109    1.080   .     S
C107   C106    1.384   1_565 A
N112   N113    1.321   .     A
N112   C116    1.348   .     A
N112   H118    1.046   .     S
N113   C114    1.351   .     A
N113   H119    1.048   .     S
C114   C115    1.394   .     A
C114   C52     1.471   1_565 S
C115   C116    1.392   .     A
C115   H117    1.083   1_565 S
H117   C115    1.083   1_545 S
N120   N121    1.322   .     A
N120   C124    1.356   .     A
N120   H126    1.043   .     S
N121   C122    1.352   .     A
N121   H127    1.050   .     S
C122   C123    1.402   .     A
C123   C124    1.399   .     A
C123   H125    1.093   .     S
N128   N129    1.317   .     A
N128   C132    1.348   .     A
N128   H134    1.044   .     S
N129   C130    1.337   .     A
N129   H135    1.044   .     S
C130   C131    1.385   .     A
C131   C132    1.389   .     A
C131   H133    1.075   .     S
N136   N137    1.322   .     A
N136   C140    1.352   .     A
N136   H142    1.049   .     S
N137   C138    1.350   .     A
N137   H143    1.049   .     S
C138   C139    1.383   .     A
C139   C140    1.373   .     A
C139   H141    1.085   .     S
N144   N145    1.325   .     A
N144   C148    1.350   .     A
N144   H150    1.044   .     S
N145   C146    1.345   1_565 A
N145   H151    1.041   1_565 S
C146   N145    1.345   1_545 A
C146   C147    1.388   1_645 A
C147   H149    1.084   .     S
C147   C146    1.388   1_465 A
C147   C148    1.388   1_455 A
C148   C147    1.388   1_655 A
H151   N145    1.041   1_545 S
N152   N153    1.321   .     A
N152   C156    1.346   .     A
N152   H158    1.043   .     S
N153   C154    1.349   .     A
N153   H159    1.039   .     S
C154   C155    1.380   1_655 A
C154   C8      1.466   1_655 S
C155   H157    1.077   .     S
C155   C154    1.380   1_455 A
C155   C156    1.384   1_455 A
C156   C155    1.384   1_655 A
N160   N161    1.320   .     A
N160   C164    1.352   .     A
N160   H166    1.043   .     S
N161   C162    1.347   .     A
N161   H167    1.043   .     S
C162   C163    1.384   1_554 A
C163   H165    1.084   .     S
C163   C162    1.384   1_556 A
C163   C164    1.377   1_556 A
C164   C163    1.377   1_554 A
C164   C9      1.472   1_654 S
N168   N169    1.314   .     A
N168   C172    1.347   .     A
N168   H174    1.043   .     S
N169   C170    1.339   .     A
N169   H175    1.041   .     S
C170   C171    1.392   .     A
C171   C172    1.387   .     A
C171   H173    1.082   .     S
