data_lcy+N144+E220
_audit_creation_date              2025-01-21
_audit_creation_method            'Materials Studio'
_symmetry_space_group_name_H-M    'P1'
_symmetry_Int_Tables_number       1
_symmetry_cell_setting            triclinic
loop_
_symmetry_equiv_pos_as_xyz
  x,y,z
_cell_length_a                    19.0903
_cell_length_b                    20.1248
_cell_length_c                    16.9152
_cell_angle_alpha                 88.6517
_cell_angle_beta                  88.8868
_cell_angle_gamma                 80.6958
loop_
_atom_site_label
_atom_site_type_symbol
_atom_site_fract_x
_atom_site_fract_y
_atom_site_fract_z
_atom_site_U_iso_or_equiv
_atom_site_adp_type
_atom_site_occupancy
C0     C     0.29795   0.70864   0.92336   0.00000  Uiso   1.00
Er1    Er    0.09110   0.60805   0.80950   0.00000  Uiso   1.00
Er2    Er    0.16397   0.65970   0.88076   0.00000  Uiso   1.00
C3     C     0.01689   0.65789   0.95653   0.00000  Uiso   1.00
O4     O     0.20459   0.57303   0.95096   0.00000  Uiso   1.00
C5     C     0.07695   0.76036   0.77638   0.00000  Uiso   1.00
C6     C     0.22959   0.60778   0.72290   0.00000  Uiso   1.00
C7     C     0.05496   0.49315   0.77370   0.00000  Uiso   1.00
O8     O     0.32603   0.65304  -0.09771   0.00000  Uiso   1.00
O9     O     0.22812   0.71848   0.95002   0.00000  Uiso   1.00
O10    O     0.24574   0.63493   0.78625   0.00000  Uiso   1.00
O11    O     0.16899   0.59146   0.71678   0.00000  Uiso   1.00
O12    O     0.12892   0.75292   0.82170   0.00000  Uiso   1.00
O13    O     0.05034   0.70860   0.75733   0.00000  Uiso   1.00
C14    C     0.17891   0.52009   0.94230   0.00000  Uiso   1.00
O15    O     0.13757   0.51661   0.88358   0.00000  Uiso   1.00
O16    O     0.07474   0.68116   0.96654   0.00000  Uiso   1.00
O17    O     0.01011   0.62357   0.89670   0.00000  Uiso   1.00
O18    O     0.10121   0.50009   0.82475   0.00000  Uiso   1.00
O19    O     1.02606   0.54877   0.74298   0.00000  Uiso   1.00
C20    C     0.77662   0.88620   0.29022   0.00000  Uiso   1.00
Er21   Er    0.60505   0.83946   0.08540   0.00000  Uiso   1.00
Er22   Er    0.65767   0.84988   0.19901   0.00000  Uiso   1.00
C23    C     0.70065   0.93727   1.06053   0.00000  Uiso   1.00
O24    O     0.57415   0.92880   0.23440   0.00000  Uiso   1.00
C25    C     0.75059   0.75099   0.10389   0.00000  Uiso   1.00
C26    C     0.56612   0.74105   0.21062   0.00000  Uiso   1.00
C27    C     0.49794   0.85973   0.98980   0.00000  Uiso   1.00
O28    O     0.82380  -0.14990   0.25503   0.00000  Uiso   1.00
O29    O     0.71312   0.86359   0.30855   0.00000  Uiso   1.00
O30    O     0.60535   0.77026   0.25416   0.00000  Uiso   1.00
O31    O     0.55221   0.76438   0.14176   0.00000  Uiso   1.00
O32    O     0.74598   0.77554   0.17142   0.00000  Uiso   1.00
O33    O     0.69788   0.76307   0.05786   0.00000  Uiso   1.00
C34    C     0.52812   0.95561   0.18564   0.00000  Uiso   1.00
O35    O     0.52257   0.92633   0.11981   0.00000  Uiso   1.00
O36    O     0.71112   0.92533   0.13440   0.00000  Uiso   1.00
O37    O     0.65640   0.90995   1.02447   0.00000  Uiso   1.00
O38    O     0.49956   0.89258   0.05303   0.00000  Uiso   1.00
O39    O     0.55587   0.82161   0.97600   0.00000  Uiso   1.00
C40    C     0.97035   0.23663   0.80222   0.00000  Uiso   1.00
Er41   Er    0.82796   0.11670   0.62841   0.00000  Uiso   1.00
Er42   Er    0.85954   0.17637   0.72201   0.00000  Uiso   1.00
C43    C     0.94810   0.03479   0.70057   0.00000  Uiso   1.00
O44    O     0.93478   0.21226   0.64222   0.00000  Uiso   1.00
C45    C     0.77407   0.08952   0.79879   0.00000  Uiso   1.00
C46    C     0.72063   0.24073   0.65122   0.00000  Uiso   1.00
C47    C     0.81141   0.08639   0.48311   0.00000  Uiso   1.00
O48    O     0.01267   0.18439   0.80513   0.00000  Uiso   1.00
O49    O     0.89871   0.23494   0.81516   0.00000  Uiso   1.00
O50    O     0.77058   0.25838   0.69173   0.00000  Uiso   1.00
O51    O     0.73101   0.18451   0.61864   0.00000  Uiso   1.00
O52    O     0.79115   0.14579   0.80936   0.00000  Uiso   1.00
O53    O     0.78269   0.06426   0.72992   0.00000  Uiso   1.00
C54    C     0.93554   0.20287   0.56891   0.00000  Uiso   1.00
O55    O     0.88791   0.17207   0.54039   0.00000  Uiso   1.00
O56    O     0.93737   0.08311   0.75009   0.00000  Uiso   1.00
O57    O     0.92007   0.04391   0.63406   0.00000  Uiso   1.00
O58    O     0.84734   0.13176   0.50153   0.00000  Uiso   1.00
O59    O     0.78599   1.05813   0.54189   0.00000  Uiso   1.00
C60    C     0.17636   0.30903   0.43000   0.00000  Uiso   1.00
Er61   Er    0.41945   0.37807   0.32348   0.00000  Uiso   1.00
Er62   Er    0.33175   0.32998   0.38754   0.00000  Uiso   1.00
C63    C     0.47472   0.31971   0.47677   0.00000  Uiso   1.00
O64    O     0.29261   0.41997   0.45139   0.00000  Uiso   1.00
C65    C     0.42088   0.22848   0.28346   0.00000  Uiso   1.00
C66    C     0.28699   0.39300   0.22535   0.00000  Uiso   1.00
C67    C     0.47752   0.48690   0.29787   0.00000  Uiso   1.00
O68    O     0.16560   0.36360   0.39600   0.00000  Uiso   1.00
O69    O     0.24654   0.28004   0.44778   0.00000  Uiso   1.00
O70    O     0.26366   0.36035   0.28343   0.00000  Uiso   1.00
O71    O     0.34687   0.41178   0.23010   0.00000  Uiso   1.00
O72    O     0.36911   0.23583   0.33188   0.00000  Uiso   1.00
O73    O     0.44998   0.27971   0.26368   0.00000  Uiso   1.00
C74    C     0.33036   0.46596   0.45263   0.00000  Uiso   1.00
O75    O     0.38081   0.46630   0.40100   0.00000  Uiso   1.00
O76    O     0.41180   0.30399   0.48334   0.00000  Uiso   1.00
O77    O     0.49376   0.34571   0.41296   0.00000  Uiso   1.00
O78    O     0.42865   0.48274   0.34913   0.00000  Uiso   1.00
O79    O     0.49614   0.43213   0.26186   0.00000  Uiso   1.00
C80    C     0.43355   0.85345   0.94605   0.00000  Uiso   1.00
C81    C     0.36662   0.86447  -0.01476   0.00000  Uiso   1.00
C82    C     0.31967   0.81865   0.97372   0.00000  Uiso   1.00
C83    C     0.33828   0.76471   0.92235   0.00000  Uiso   1.00
C84    C     0.39773   0.76328   0.87246   0.00000  Uiso   1.00
C85    C     0.44395   0.80891   0.88260   0.00000  Uiso   1.00
O86    O     0.37324   0.97413   0.03034   0.00000  Uiso   1.00
O87    O     0.29972   0.91460   0.09486   0.00000  Uiso   1.00
N88    N     0.34841   0.91805   0.04055   0.00000  Uiso   1.00
H89    H     0.41121   0.72396   0.82952   0.00000  Uiso   1.00
H90    H     0.49351   0.80180   0.84917   0.00000  Uiso   1.00
H91    H     0.27084   0.82261   0.00823   0.00000  Uiso   1.00
C92    C     0.44738   0.15844   0.25624   0.00000  Uiso   1.00
C93    C     0.45149   0.10331   0.31119   0.00000  Uiso   1.00
C94    C     0.47111   0.03703   0.28494   0.00000  Uiso   1.00
C95    C     0.48776   0.02308   0.20536   0.00000  Uiso   1.00
C96    C     0.48240   0.07743   0.15073   0.00000  Uiso   1.00
C97    C     0.46260   0.14441   0.17591   0.00000  Uiso   1.00
O98    O     0.41313   0.06928   0.43804   0.00000  Uiso   1.00
O99    O     0.46579   0.16095   0.42968   0.00000  Uiso   1.00
N100   N     0.44000   0.11349   0.39474   0.00000  Uiso   1.00
H101   H     0.49734   0.06836   0.08935   0.00000  Uiso   1.00
H102   H     0.45881   0.18521   0.13252   0.00000  Uiso   1.00
H103   H     0.47749  -0.00408   0.32808   0.00000  Uiso   1.00
C104   C     0.64898   0.28005   0.63845   0.00000  Uiso   1.00
C105   C     0.58916   0.24611   0.64990   0.00000  Uiso   1.00
C106   C     0.52961   0.26174   0.60048   0.00000  Uiso   1.00
C107   C     0.52843   0.31072   0.54058   0.00000  Uiso   1.00
C108   C     0.58409   0.34938   0.53657   0.00000  Uiso   1.00
C109   C     0.64343   0.33429   0.58482   0.00000  Uiso   1.00
O110   O     0.63087   0.18897   0.76852   0.00000  Uiso   1.00
O111   O     0.55196   0.14501   0.69811   0.00000  Uiso   1.00
N112   N     0.59156   0.19125   0.70636   0.00000  Uiso   1.00
H113   H     0.58431   0.38870   0.49179   0.00000  Uiso   1.00
H114   H     0.68867   0.35950   0.57311   0.00000  Uiso   1.00
H115   H     0.48643   0.23289   0.60544   0.00000  Uiso   1.00
C116   C     0.75519   0.05192   0.86937   0.00000  Uiso   1.00
C117   C     0.71759   0.08488   0.93453   0.00000  Uiso   1.00
C118   C     0.70832   0.04841   1.00435   0.00000  Uiso   1.00
C119   C     0.73805   0.98056   1.01152   0.00000  Uiso   1.00
C120   C     0.77948   0.94950   0.94914   0.00000  Uiso   1.00
C121   C     0.78721   0.98455   0.87839   0.00000  Uiso   1.00
O122   O     0.61708   0.16989   0.93898   0.00000  Uiso   1.00
O123   O     0.72471   0.20061   0.93930   0.00000  Uiso   1.00
N124   N     0.68556   0.15423   0.92993   0.00000  Uiso   1.00
H125   H     0.80069   0.89620   0.95279   0.00000  Uiso   1.00
H126   H     0.81895   0.95912   0.83092   0.00000  Uiso   1.00
H127   H     0.67366   0.07187   1.05086   0.00000  Uiso   1.00
C128   C     0.80290   0.06382   0.40365   0.00000  Uiso   1.00
C129   C     0.73412   0.05577   0.38079   0.00000  Uiso   1.00
C130   C     0.72661  -0.00060   0.33696   0.00000  Uiso   1.00
C131   C     0.78637   0.95299   0.31548   0.00000  Uiso   1.00
C132   C     0.85444   0.96853   0.32602   0.00000  Uiso   1.00
C133   C     0.86263   1.02434   0.36987   0.00000  Uiso   1.00
O134   O     0.67704   0.15883   0.43639   0.00000  Uiso   1.00
O135   O     0.60903   0.08421   0.40061   0.00000  Uiso   1.00
N136   N     0.67189   0.10004   0.40860   0.00000  Uiso   1.00
H137   H     0.90125   0.93395   0.30804   0.00000  Uiso   1.00
H138   H     0.91554   1.03027   0.38740   0.00000  Uiso   1.00
H139   H     0.67399  -0.01079   0.32443   0.00000  Uiso   1.00
C140   C     0.32125   0.51262   0.52016   0.00000  Uiso   1.00
C141   C     0.34404   0.48859   0.59650   0.00000  Uiso   1.00
C142   C     0.32448   0.52782   0.66314   0.00000  Uiso   1.00
C143   C     0.27917   0.58930   0.65636   0.00000  Uiso   1.00
C144   C     0.26044   0.61526   0.58022   0.00000  Uiso   1.00
C145   C     0.28226   0.57770   0.51249   0.00000  Uiso   1.00
O146   O     0.43769   0.41103   0.64927   0.00000  Uiso   1.00
O147   O     0.34217   0.37242   0.60590   0.00000  Uiso   1.00
N148   N     0.37921   0.42105   0.60936   0.00000  Uiso   1.00
H149   H     0.22325   0.66171   0.57377   0.00000  Uiso   1.00
H150   H     0.26331   0.59689   0.45511   0.00000  Uiso   1.00
H151   H     0.33594   0.50547   0.72135   0.00000  Uiso   1.00
C152   C     0.19412   0.46661   0.00431   0.00000  Uiso   1.00
C153   C     0.14997   0.46829   0.07330   0.00000  Uiso   1.00
C154   C     0.17817   0.43891   0.14527   0.00000  Uiso   1.00
C155   C     0.24937   0.40816   0.14920   0.00000  Uiso   1.00
C156   C     0.29034   0.40187   0.07890   0.00000  Uiso   1.00
C157   C     0.26334   0.43106   0.00777   0.00000  Uiso   1.00
O158   O     0.05125   0.53549   0.13549   0.00000  Uiso   1.00
O159   O     0.03894   0.50251   0.01149   0.00000  Uiso   1.00
N160   N     0.07869   0.50463   0.07267   0.00000  Uiso   1.00
H161   H     0.34555   0.37837   0.08023   0.00000  Uiso   1.00
H162   H     0.29884   0.43119  -0.04298   0.00000  Uiso   1.00
H163   H     0.14606   0.44411   0.19896   0.00000  Uiso   1.00
C164   C     0.11467   0.27566   0.45607   0.00000  Uiso   1.00
C165   C     0.04712   0.28781   0.41850   0.00000  Uiso   1.00
C166   C     0.98863   0.26163   0.45303   0.00000  Uiso   1.00
C167   C     0.99640   0.22281   0.52298   0.00000  Uiso   1.00
C168   C     0.06400   0.20835   0.55687   0.00000  Uiso   1.00
C169   C     0.12201   0.23411   0.52408   0.00000  Uiso   1.00
O170   O     0.08517   0.31556   0.28920   0.00000  Uiso   1.00
O171   O    -0.02477   0.35998   0.32868   0.00000  Uiso   1.00
N172   N     0.03704   0.32527   0.34508   0.00000  Uiso   1.00
H173   H     0.07155   0.17818   0.61087   0.00000  Uiso   1.00
H174   H     0.17228   0.22358   0.55422   0.00000  Uiso   1.00
H175   H     0.93686   0.27266   0.42623   0.00000  Uiso   1.00
C176   C     0.98324   0.96499   0.71943   0.00000  Uiso   1.00
C177   C     0.95856   0.90953   0.68390   0.00000  Uiso   1.00
C178   C     0.99095   0.84336   0.70009   0.00000  Uiso   1.00
C179   C     0.04718   0.83030   0.75219   0.00000  Uiso   1.00
C180   C     0.07178   0.88522   0.78736   0.00000  Uiso   1.00
C181   C     0.04005   0.95179   0.77128   0.00000  Uiso   1.00
O182   O     0.90662   0.90950   0.55818   0.00000  Uiso   1.00
O183   O     0.83457   0.92764   0.66488   0.00000  Uiso   1.00
N184   N     0.89814   0.91912   0.63376   0.00000  Uiso   1.00
H185   H     0.11495   0.87679   0.82888   0.00000  Uiso   1.00
H186   H     0.05993   0.99280   0.79905   0.00000  Uiso   1.00
H187   H     0.97063   0.80206   0.67346   0.00000  Uiso   1.00
C188   C     0.03652   0.42692   0.75830   0.00000  Uiso   1.00
C189   C     0.08845   0.36844   0.76656   0.00000  Uiso   1.00
C190   C     0.06630   0.30593   0.77928   0.00000  Uiso   1.00
C191   C     0.99388   0.30104   0.78190   0.00000  Uiso   1.00
C192   C     0.94358   0.35834   0.76506   0.00000  Uiso   1.00
C193   C     0.96479   0.42092   0.75338   0.00000  Uiso   1.00
O194   O     0.20819   0.32698   0.80077   0.00000  Uiso   1.00
O195   O     0.18754   0.41622   0.71783   0.00000  Uiso   1.00
N196   N     0.16324   0.37199   0.76375   0.00000  Uiso   1.00
H197   H     0.88748   0.35535   0.76392   0.00000  Uiso   1.00
H198   H     0.92470   0.46527   0.74660   0.00000  Uiso   1.00
H199   H     0.10559   0.26137   0.78880   0.00000  Uiso   1.00
C200   C     0.82045   0.71708   0.07745   0.00000  Uiso   1.00
C201   C     0.83030   0.65800   1.03314   0.00000  Uiso   1.00
C202   C     0.89752   0.63610   0.99956   0.00000  Uiso   1.00
C203   C     0.95431   0.67224   1.00909   0.00000  Uiso   1.00
C204   C     0.94512   0.72784   0.05788   0.00000  Uiso   1.00
C205   C     0.87858   0.75025   0.09125   0.00000  Uiso   1.00
O206   O     0.77462   0.58209   0.96003   0.00000  Uiso   1.00
O207   O     0.72362   0.61929   1.07451   0.00000  Uiso   1.00
N208   N     0.77331   0.62058   1.02098   0.00000  Uiso   1.00
H209   H     0.98759   0.75681   0.06541   0.00000  Uiso   1.00
H210   H     0.87131   0.79671   0.12350   0.00000  Uiso   1.00
H211   H     0.90482   0.59182   0.96328   0.00000  Uiso   1.00
C212   C     0.54056   0.67717   0.23469   0.00000  Uiso   1.00
C213   C     0.52319   0.63272   0.17637   0.00000  Uiso   1.00
C214   C     0.50778   0.56935   0.19865   0.00000  Uiso   1.00
C215   C     0.50387   0.55020   0.27804   0.00000  Uiso   1.00
C216   C     0.51817   0.59455   0.33637   0.00000  Uiso   1.00
C217   C     0.53852   0.65669   0.31473   0.00000  Uiso   1.00
O218   O     0.56222   0.61399   0.04432   0.00000  Uiso   1.00
O219   O     0.46577   0.69123   0.06709   0.00000  Uiso   1.00
N220   N     0.52056   0.65055   0.09391   0.00000  Uiso   1.00
H221   H     0.51461   0.58068   0.39844   0.00000  Uiso   1.00
H222   H     0.55202   0.68893   0.36055   0.00000  Uiso   1.00
H223   H     0.49511   0.53610   0.15343   0.00000  Uiso   1.00
loop_
_geom_bond_atom_site_label_1
_geom_bond_atom_site_label_2
_geom_bond_distance
_geom_bond_site_symmetry_2
_ccdc_geom_bond_type
C0     O9      1.384   .     S
C0     C83     1.465   .     S
C0     O8      1.218   1_556 D
Er1    O11     2.134   .     S
Er1    O13     2.216   .     S
Er1    O15     2.269   .     S
Er1    O17     2.107   .     S
Er1    O18     2.160   .     S
Er1    O19     2.197   1_455 S
Er2    O4      2.134   .     S
Er2    O9      2.205   .     S
Er2    O10     2.220   .     S
Er2    O12     2.121   .     S
Er2    O16     2.211   .     S
C3     O16     1.283   .     A
C3     O17     1.259   .     A
C3     C203    1.470   1_455 S
O4     C14     1.255   .     A
C5     O12     1.253   .     A
C5     O13     1.281   .     A
C5     C179    1.481   .     S
C6     O10     1.279   .     A
C6     O11     1.259   .     A
C6     C143    1.472   .     S
C7     O18     1.273   .     A
C7     C188    1.463   .     S
C7     O19     1.269   1_455 A
O8     C0      1.218   1_554 D
C14    O15     1.291   .     A
C14    C152    1.483   1_556 S
O19    Er1     2.197   1_655 S
O19    C7      1.269   1_655 A
C20    O29     1.389   .     S
C20    C131    1.461   .     S
C20    O28     1.217   1_565 D
Er21   O31     2.144   .     S
Er21   O33     2.200   .     S
Er21   O35     2.235   .     S
Er21   O38     2.195   .     S
Er21   O37     2.092   1_554 S
Er21   O39     2.155   1_554 S
Er22   O24     2.147   .     S
Er22   O29     2.196   .     S
Er22   O30     2.201   .     S
Er22   O32     2.118   .     S
Er22   O36     2.218   .     S
C23    O37     1.254   .     A
C23    C119    1.449   .     S
C23    O36     1.280   1_556 A
O24    C34     1.264   .     A
C25    O32     1.251   .     A
C25    O33     1.273   .     A
C25    C200    1.463   .     S
C26    O30     1.278   .     A
C26    O31     1.262   .     A
C26    C212    1.492   .     S
C27    O39     1.261   .     A
C27    C80     1.471   .     S
C27    O38     1.274   1_556 A
O28    C20     1.217   1_545 D
C34    O35     1.286   .     A
C34    C95     1.490   1_565 S
O36    C23     1.280   1_554 A
O37    Er21    2.092   1_556 S
O38    C27     1.274   1_554 A
O39    Er21    2.155   1_556 S
C40    O49     1.386   .     S
C40    C191    1.470   .     S
C40    O48     1.219   1_655 D
Er41   O51     2.121   .     S
Er41   O53     2.227   .     S
Er41   O55     2.244   .     S
Er41   O57     2.101   .     S
Er41   O58     2.193   .     S
Er41   O59     2.146   1_545 S
Er42   O44     2.150   .     S
Er42   O49     2.202   .     S
Er42   O50     2.227   .     S
Er42   O52     2.100   .     S
Er42   O56     2.245   .     S
C43    O56     1.287   .     A
C43    O57     1.252   .     A
C43    C176    1.486   1_545 S
O44    C54     1.258   .     A
C45    O52     1.246   .     A
C45    O53     1.279   .     A
C45    C116    1.469   .     S
C46    O50     1.285   .     A
C46    O51     1.255   .     A
C46    C104    1.482   .     S
C47    O58     1.275   .     A
C47    C128    1.449   .     S
C47    O59     1.262   1_545 A
O48    C40     1.219   1_455 D
C54    O55     1.287   .     A
C54    C167    1.489   .     S
O59    Er41    2.146   1_565 S
O59    C47     1.262   1_565 A
C60    O68     1.217   .     D
C60    O69     1.407   .     S
C60    C164    1.501   .     S
Er61   O71     2.146   .     S
Er61   O73     2.231   .     S
Er61   O75     2.251   .     S
Er61   O77     2.113   .     S
Er61   O78     2.196   .     S
Er61   O79     2.195   .     S
Er62   O64     2.151   .     S
Er62   O69     2.261   .     S
Er62   O70     2.224   .     S
Er62   O72     2.146   .     S
Er62   O76     2.243   .     S
C63    O76     1.293   .     A
C63    O77     1.261   .     A
C63    C107    1.491   .     S
O64    C74     1.262   .     A
C65    O72     1.263   .     A
C65    O73     1.283   .     A
C65    C92     1.498   .     S
C66    O70     1.282   .     A
C66    O71     1.265   .     A
C66    C155    1.488   .     S
C67    O78     1.273   .     A
C67    O79     1.268   .     A
C67    C215    1.473   .     S
C74    O75     1.288   .     A
C74    C140    1.486   .     S
C80    C85     1.405   .     A
C80    C81     1.415   1_556 A
C81    N88     1.440   .     S
C81    C80     1.415   1_554 A
C81    C82     1.405   1_554 A
C82    C83     1.403   .     A
C82    C81     1.405   1_556 A
C82    H91     1.083   1_556 S
C83    C84     1.398   .     A
C84    C85     1.388   .     A
C84    H89     1.083   .     S
C85    H90     1.084   .     S
O86    N88     1.299   .     A
O87    N88     1.303   .     A
H91    C82     1.083   1_554 S
C92    C93     1.424   .     A
C92    C97     1.410   .     A
C93    C94     1.406   .     A
C93    N100    1.440   .     S
C94    C95     1.402   .     A
C94    H103    1.084   .     S
C95    C96     1.407   .     A
C95    C34     1.490   1_545 S
C96    C97     1.413   .     A
C96    H101    1.083   .     S
C97    H102    1.083   .     S
O98    N100    1.301   .     A
O99    N100    1.301   .     A
C104   C105    1.430   .     A
C104   C109    1.395   .     A
C105   C106    1.414   .     A
C105   N112    1.438   .     S
C106   C107    1.395   .     A
C106   H115    1.083   .     S
C107   C108    1.414   .     A
C108   C109    1.398   .     A
C108   H113    1.083   .     S
C109   H114    1.083   .     S
O110   N112    1.299   .     A
O111   N112    1.302   .     A
C116   C117    1.421   .     A
C116   C121    1.400   1_545 A
C117   C118    1.399   .     A
C117   N124    1.431   .     S
C118   H127    1.084   .     S
C118   C119    1.395   1_545 A
C119   C120    1.403   .     A
C119   C118    1.395   1_565 A
C120   C121    1.392   .     A
C120   H125    1.084   .     S
C121   H126    1.084   .     S
C121   C116    1.400   1_565 A
O122   N124    1.301   .     A
O123   N124    1.301   .     A
C128   C129    1.411   .     A
C128   C133    1.400   1_545 A
C129   C130    1.398   .     A
C129   N136    1.443   .     S
C130   H139    1.083   .     S
C130   C131    1.400   1_545 A
C131   C132    1.400   .     A
C131   C130    1.400   1_565 A
C132   C133    1.392   .     A
C132   H137    1.083   .     S
C133   H138    1.084   .     S
C133   C128    1.400   1_565 A
O134   N136    1.302   .     A
O135   N136    1.301   .     A
C140   C141    1.420   .     A
C140   C145    1.402   .     A
C141   C142    1.401   .     A
C141   N148    1.429   .     S
C142   C143    1.394   .     A
C142   H151    1.084   .     S
C143   C144    1.409   .     A
C144   C145    1.406   .     A
C144   H149    1.083   .     S
C145   H150    1.083   .     S
O146   N148    1.301   .     A
O147   N148    1.300   .     A
C152   C153    1.424   .     A
C152   C157    1.399   .     A
C152   C14     1.483   1_554 S
C153   C154    1.418   .     A
C153   N160    1.437   .     S
C154   C155    1.402   .     A
C154   H163    1.083   .     S
C155   C156    1.407   .     A
C156   C157    1.397   .     A
C156   H161    1.084   .     S
C157   H162    1.084   .     S
O158   N160    1.301   .     A
O159   N160    1.301   .     A
C164   C165    1.431   .     A
C164   C169    1.402   .     A
C165   N172    1.437   .     S
C165   C166    1.420   1_455 A
C166   C167    1.399   .     A
C166   H175    1.083   .     S
C166   C165    1.420   1_655 A
C167   C168    1.406   1_655 A
C168   C169    1.397   .     A
C168   H173    1.084   .     S
C168   C167    1.406   1_455 A
C169   H174    1.083   .     S
O170   N172    1.301   .     A
O171   N172    1.302   .     A
C176   C177    1.429   .     A
C176   C181    1.396   1_655 A
C176   C43     1.486   1_565 S
C177   C178    1.398   .     A
C177   N184    1.430   .     S
C178   H187    1.083   .     S
C178   C179    1.390   1_655 A
C179   C180    1.416   .     A
C179   C178    1.390   1_455 A
C180   C181    1.401   .     A
C180   H185    1.083   .     S
C181   H186    1.083   .     S
C181   C176    1.396   1_455 A
O182   N184    1.301   .     A
O183   N184    1.301   .     A
C188   C189    1.417   .     A
C188   C193    1.398   1_455 A
C189   C190    1.401   .     A
C189   N196    1.441   .     S
C190   H199    1.083   .     S
C190   C191    1.401   1_455 A
C191   C192    1.404   .     A
C191   C190    1.401   1_655 A
C192   C193    1.393   .     A
C192   H197    1.083   .     S
C193   H198    1.083   .     S
C193   C188    1.398   1_655 A
O194   N196    1.301   .     A
O195   N196    1.303   .     A
C200   C205    1.410   .     A
C200   C201    1.405   1_554 A
C201   C202    1.402   .     A
C201   N208    1.440   .     S
C201   C200    1.405   1_556 A
C202   C203    1.413   .     A
C202   H211    1.083   .     S
C203   C204    1.392   1_556 A
C203   C3      1.470   1_655 S
C204   C205    1.391   .     A
C204   H209    1.084   .     S
C204   C203    1.392   1_554 A
C205   H210    1.082   .     S
O206   N208    1.301   .     A
O207   N208    1.301   .     A
C212   C213    1.426   .     A
C212   C217    1.408   .     A
C213   C214    1.396   .     A
C213   N220    1.432   .     S
C214   C215    1.392   .     A
C214   H223    1.084   .     S
C215   C216    1.406   .     A
C216   C217    1.407   .     A
C216   H221    1.084   .     S
C217   H222    1.083   .     S
O218   N220    1.301   .     A
O219   N220    1.302   .     A
