data_lcy+N173+E35
_audit_creation_date              2025-01-21
_audit_creation_method            'Materials Studio'
_symmetry_space_group_name_H-M    'P1'
_symmetry_Int_Tables_number       1
_symmetry_cell_setting            triclinic
loop_
_symmetry_equiv_pos_as_xyz
  x,y,z
_cell_length_a                    25.5960
_cell_length_b                    26.3696
_cell_length_c                    26.2532
_cell_angle_alpha                 94.3868
_cell_angle_beta                  86.2651
_cell_angle_gamma                 98.7341
loop_
_atom_site_label
_atom_site_type_symbol
_atom_site_fract_x
_atom_site_fract_y
_atom_site_fract_z
_atom_site_U_iso_or_equiv
_atom_site_adp_type
_atom_site_occupancy
Gd0    Gd    0.11985   0.64123   0.83029   0.00000  Uiso   1.00
Gd1    Gd    0.12297   0.58407   0.89020   0.00000  Uiso   1.00
O2     O     0.04493   0.54441   0.86938   0.00000  Uiso   1.00
O3     O     0.04749   0.58945   0.80222   0.00000  Uiso   1.00
O4     O     0.16678   0.59495   0.77729   0.00000  Uiso   1.00
O5     O     0.16011   0.53336   0.83026   0.00000  Uiso   1.00
O6     O     0.07467   0.70853   0.84218   0.00000  Uiso   1.00
O7     O     0.11378   0.69556   0.77025   0.00000  Uiso   1.00
O8     O     0.19521   0.68927   0.85621   0.00000  Uiso   1.00
C9     C     0.08501   0.72328   0.79719   0.00000  Uiso   1.00
O10    O     0.20323   0.62767   0.90606   0.00000  Uiso   1.00
O11    O     0.07073   0.68322   0.88861   0.00000  Uiso   1.00
C12    C     0.17295   0.54990   0.78629   0.00000  Uiso   1.00
O13    O     0.08241   0.63290   0.94890   0.00000  Uiso   1.00
O14    O     0.12809   0.52780   0.94841   0.00000  Uiso   1.00
O15    O     0.19216   0.58763   0.93934   0.00000  Uiso   1.00
C16    C     0.02717   0.55086   0.82698   0.00000  Uiso   1.00
C17    C     0.17293   0.54825   0.96304   0.00000  Uiso   1.00
C18    C     0.06163   0.66995   0.93455   0.00000  Uiso   1.00
C19    C     0.22272   0.66958   0.88611   0.00000  Uiso   1.00
Gd20   Gd    0.64968   0.84415   0.12001   0.00000  Uiso   1.00
Gd21   Gd    0.59246   0.90100   0.14174   0.00000  Uiso   1.00
O22    O     0.53993   0.85878   0.08457   0.00000  Uiso   1.00
O23    O     0.59521   0.80476   0.05960   0.00000  Uiso   1.00
O24    O     0.60660   0.79613   0.17907   0.00000  Uiso   1.00
O25    O     0.55171   0.85099   0.20306   0.00000  Uiso   1.00
O26    O     0.72260   0.84860   0.06502   0.00000  Uiso   1.00
O27    O     0.70270   0.78383   0.10744   0.00000  Uiso   1.00
O28    O     0.70125   0.88396   0.18186   0.00000  Uiso   1.00
C29    C     0.73564   0.80639   0.07606   0.00000  Uiso   1.00
O30    O     0.64709   0.94100   0.20028   0.00000  Uiso   1.00
O31    O     0.69075   0.89439   0.06033   0.00000  Uiso   1.00
C32    C     0.56876   0.80875   0.20830   0.00000  Uiso   1.00
O33    O     0.63323   0.94827   0.07874   0.00000  Uiso   1.00
O34    O     0.53352   0.95576   0.15479   0.00000  Uiso   1.00
O35    O     0.60211   0.97259   0.19604   0.00000  Uiso   1.00
C36    C     0.55146   0.82141   0.05512   0.00000  Uiso   1.00
C37    C     0.55928   0.98724   0.18560   0.00000  Uiso   1.00
C38    C     0.67164   0.93428   0.05038   0.00000  Uiso   1.00
C39    C     0.68812   0.92210   0.21007   0.00000  Uiso   1.00
Gd40   Gd    0.90256   0.09792   0.63578   0.00000  Uiso   1.00
Gd41   Gd    0.84133   0.14998   0.63080   0.00000  Uiso   1.00
O42    O     0.87687   0.19958   0.69405   0.00000  Uiso   1.00
O43    O     0.94408   0.15680   0.69258   0.00000  Uiso   1.00
O44    O     0.95025   0.13748   0.57431   0.00000  Uiso   1.00
O45    O     0.89752   0.19584   0.57550   0.00000  Uiso   1.00
O46    O     0.89829   1.03441   0.68968   0.00000  Uiso   1.00
O47    O     0.96532   0.04845   0.63915   0.00000  Uiso   1.00
O48    O     0.86326   0.04260   0.57544   0.00000  Uiso   1.00
C49    C     0.94251   0.02124   0.67374   0.00000  Uiso   1.00
O50    O     0.80789   0.09705   0.56585   0.00000  Uiso   1.00
O51    O     0.85107   0.06033   0.69913   0.00000  Uiso   1.00
C52    C     0.94018   0.17910   0.55949   0.00000  Uiso   1.00
O53    O     0.78802   0.10643   0.68883   0.00000  Uiso   1.00
O54    O     0.78313   0.20427   0.62743   0.00000  Uiso   1.00
O55    O     0.77712   0.13984   0.57445   0.00000  Uiso   1.00
C56    C     0.92201   0.19568   0.70844   0.00000  Uiso   1.00
C57    C     0.75893   0.18071   0.59042   0.00000  Uiso   1.00
C58    C     0.80583   0.07320   0.71304   0.00000  Uiso   1.00
C59    C     0.82640   0.05567   0.55115   0.00000  Uiso   1.00
Gd60   Gd    0.33903   0.38068   0.34900   0.00000  Uiso   1.00
Gd61   Gd    0.39869   0.38070   0.41011   0.00000  Uiso   1.00
O62    O     0.35939   0.43704   0.45728   0.00000  Uiso   1.00
O63    O     0.29508   0.43098   0.40460   0.00000  Uiso   1.00
O64    O     0.29016   0.31337   0.37979   0.00000  Uiso   1.00
O65    O     0.33989   0.31831   0.44556   0.00000  Uiso   1.00
O66    O     0.35092   0.43835   0.28943   0.00000  Uiso   1.00
O67    O     0.28128   0.38398   0.28940   0.00000  Uiso   1.00
O68    O     0.38080   0.32766   0.29562   0.00000  Uiso   1.00
C69    C     0.30846   0.42100   0.26756   0.00000  Uiso   1.00
O70    O     0.43498   0.32329   0.35643   0.00000  Uiso   1.00
O71    O     0.39195   0.45112   0.32299   0.00000  Uiso   1.00
C72    C     0.29759   0.29968   0.42339   0.00000  Uiso   1.00
O73    O     0.45299   0.44691   0.37731   0.00000  Uiso   1.00
O74    O     0.45561   0.37466   0.47037   0.00000  Uiso   1.00
O75    O     0.46150   0.32966   0.40079   0.00000  Uiso   1.00
C76    C     0.31485   0.44750   0.44717   0.00000  Uiso   1.00
C77    C     0.47930   0.34154   0.44482   0.00000  Uiso   1.00
C78    C     0.43517   0.47068   0.34324   0.00000  Uiso   1.00
C79    C     0.41900   0.30895   0.31180   0.00000  Uiso   1.00
C80    C     0.42784   0.75588   0.95676   0.00000  Uiso   1.00
C81    C     0.47033   0.72845   0.96181   0.00000  Uiso   1.00
C82    C     0.51239   0.75013  -0.00791   0.00000  Uiso   1.00
C83    C     0.51223   0.79896   0.01714   0.00000  Uiso   1.00
C84    C     0.47073   0.82620   0.00826   0.00000  Uiso   1.00
N85    N     0.43019   0.80419  -0.02068   0.00000  Uiso   1.00
C86    C     0.37839   0.73264   0.93175   0.00000  Uiso   1.00
N87    N     0.34509   0.76375   0.91630   0.00000  Uiso   1.00
C88    C     0.29627   0.74503   0.89882   0.00000  Uiso   1.00
C89    C     0.27765   0.69218   0.89813   0.00000  Uiso   1.00
C90    C     0.31195   0.65957   0.91255   0.00000  Uiso   1.00
C91    C     0.36190   0.67941   0.92931   0.00000  Uiso   1.00
H92    H     0.54388   0.72815  -0.00274   0.00000  Uiso   1.00
H93    H     0.46942   0.86454   0.02577   0.00000  Uiso   1.00
H94    H     0.27129   0.77152   0.88779   0.00000  Uiso   1.00
H95    H     0.29967   0.61840   0.91196   0.00000  Uiso   1.00
H96    H     0.47093   0.69046   0.94333   0.00000  Uiso   1.00
H97    H     0.38588   0.65322   0.94263   0.00000  Uiso   1.00
C98    C     0.48902   0.18107   0.24776   0.00000  Uiso   1.00
C99    C     0.52141   0.22497   0.26768   0.00000  Uiso   1.00
C100   C     0.49882   0.26843   0.28515   0.00000  Uiso   1.00
C101   C     0.44444   0.26889   0.28194   0.00000  Uiso   1.00
C102   C     0.41413   0.22593   0.25826   0.00000  Uiso   1.00
N103   N     0.43675   0.18347   0.24258   0.00000  Uiso   1.00
C104   C     0.50930   0.13180   0.23322   0.00000  Uiso   1.00
N105   N     0.47966   0.09568   0.20309   0.00000  Uiso   1.00
C106   C     0.49448   0.04921   0.18852   0.00000  Uiso   1.00
C107   C     0.54183   0.03646   0.20455   0.00000  Uiso   1.00
C108   C     0.57295   0.07256   0.23610   0.00000  Uiso   1.00
C109   C     0.55672   0.12012   0.25083   0.00000  Uiso   1.00
H110   H     0.52354   0.30128   0.30268   0.00000  Uiso   1.00
H111   H     0.37195   0.22472   0.25543   0.00000  Uiso   1.00
H112   H     0.46951   1.02255   0.16377   0.00000  Uiso   1.00
H113   H     0.60991   0.06419   0.24892   0.00000  Uiso   1.00
H114   H     0.56345   0.22585   0.27066   0.00000  Uiso   1.00
H115   H     0.58094   0.14675   0.27613   0.00000  Uiso   1.00
C116   C     0.63844   0.24274   0.52284   0.00000  Uiso   1.00
C117   C     0.65454   0.19695   0.50072   0.00000  Uiso   1.00
C118   C     0.69326   0.17575   0.52334   0.00000  Uiso   1.00
C119   C     0.71556   0.19998   0.56779   0.00000  Uiso   1.00
C120   C     0.69734   0.24469   0.58951   0.00000  Uiso   1.00
N121   N     0.65981   0.26469   0.56677   0.00000  Uiso   1.00
C122   C     0.59832   0.26780   0.50085   0.00000  Uiso   1.00
N123   N     0.57250   0.30082   0.53191   0.00000  Uiso   1.00
C124   C     0.53510   0.32573   0.51479   0.00000  Uiso   1.00
C125   C     0.52184   0.31770   0.46364   0.00000  Uiso   1.00
C126   C     0.54850   0.28460   0.43069   0.00000  Uiso   1.00
C127   C     0.58704   0.25985   0.44900   0.00000  Uiso   1.00
H128   H     0.70622   0.14101   0.50572   0.00000  Uiso   1.00
H129   H     0.71342   0.26423   0.62409   0.00000  Uiso   1.00
H130   H     0.51511   0.35083   0.54136   0.00000  Uiso   1.00
H131   H     0.53946   0.27767   0.39082   0.00000  Uiso   1.00
H132   H     0.63738   0.17733   0.46673   0.00000  Uiso   1.00
H133   H     0.60785   0.23539   0.42256   0.00000  Uiso   1.00
C134   C     0.73724   0.01971   0.85594   0.00000  Uiso   1.00
C135   C     0.71982   0.06208   0.83613   0.00000  Uiso   1.00
C136   C     0.73972   0.07786   0.78792   0.00000  Uiso   1.00
C137   C     0.77696   0.05182   0.75936   0.00000  Uiso   1.00
C138   C     0.79170   0.00870   0.77963   0.00000  Uiso   1.00
N139   N     0.77212  -0.00573   0.82655   0.00000  Uiso   1.00
C140   C     0.72074   1.00195   0.90807   0.00000  Uiso   1.00
N141   N     0.74501   0.96443   0.92518   0.00000  Uiso   1.00
C142   C     0.73200   0.94440   0.97133   0.00000  Uiso   1.00
C143   C     0.69158   0.96163   0.00381   0.00000  Uiso   1.00
C144   C     0.66669   1.00117   0.98774   0.00000  Uiso   1.00
C145   C     0.68104   1.02139   0.94010   0.00000  Uiso   1.00
H146   H     0.72783   0.11180   0.77407   0.00000  Uiso   1.00
H147   H     0.81990  -0.01279   0.75881   0.00000  Uiso   1.00
H148   H     0.75228   0.91391  -0.01818   0.00000  Uiso   1.00
H149   H     0.63495   1.01540   1.01120   0.00000  Uiso   1.00
H150   H     0.69256   0.08411   0.85764   0.00000  Uiso   1.00
H151   H     0.66009   1.05083   0.92860   0.00000  Uiso   1.00
C152   C     0.77608   0.98709   0.40586   0.00000  Uiso   1.00
C153   C     0.82311   0.97559   0.42434   0.00000  Uiso   1.00
C154   C     0.83823  -0.00487   0.47335   0.00000  Uiso   1.00
C155   C     0.80676   0.02602   0.50396   0.00000  Uiso   1.00
C156   C     0.75900   0.03438   0.48498   0.00000  Uiso   1.00
N157   N     0.74548   0.01553   0.43723   0.00000  Uiso   1.00
C158   C     0.75883   0.97145   0.35295   0.00000  Uiso   1.00
N159   N     0.72071   0.99527   0.33512   0.00000  Uiso   1.00
C160   C     0.70030   0.98238   0.28855   0.00000  Uiso   1.00
C161   C     0.71729   0.94222   0.25651   0.00000  Uiso   1.00
C162   C     0.75759   0.91780   0.27331   0.00000  Uiso   1.00
C163   C     0.77857   0.93233   0.32129   0.00000  Uiso   1.00
H164   H     0.87569  -0.01181   0.48623   0.00000  Uiso   1.00
H165   H     0.73308   0.05726   0.50745   0.00000  Uiso   1.00
H166   H     0.66938   1.00242   0.27751   0.00000  Uiso   1.00
H167   H     0.77159   0.88625   0.25024   0.00000  Uiso   1.00
H168   H     0.84921   0.95373   0.40085   0.00000  Uiso   1.00
H169   H     0.80836   0.91176   0.33373   0.00000  Uiso   1.00
C170   C     0.24775   0.49037   0.58942   0.00000  Uiso   1.00
C171   C     0.29724   0.51635   0.57327   0.00000  Uiso   1.00
C172   C     0.31624   0.50806   0.52305   0.00000  Uiso   1.00
C173   C     0.28619   0.47399   0.48874   0.00000  Uiso   1.00
C174   C     0.23460   0.45302   0.50470   0.00000  Uiso   1.00
N175   N     0.21702   0.46112   0.55436   0.00000  Uiso   1.00
C176   C     0.22865   0.49460   0.64365   0.00000  Uiso   1.00
N177   N     0.17588   0.49261   0.65517   0.00000  Uiso   1.00
C178   C     0.15646   0.50290   0.70358   0.00000  Uiso   1.00
C179   C     0.19101   0.51753   0.74319   0.00000  Uiso   1.00
C180   C     0.24496   0.51578   0.73330   0.00000  Uiso   1.00
C181   C     0.26397   0.50372   0.68349   0.00000  Uiso   1.00
H182   H     0.35648   0.52460   0.51224   0.00000  Uiso   1.00
H183   H     0.21047   0.42622   0.47933   0.00000  Uiso   1.00
H184   H     0.11454   0.50434   0.71027   0.00000  Uiso   1.00
H185   H     0.27260   0.52736   0.76306   0.00000  Uiso   1.00
H186   H     0.32194   0.54149   0.59945   0.00000  Uiso   1.00
H187   H     0.30606   0.50372   0.67602   0.00000  Uiso   1.00
C188   C     0.24442   0.49512   0.08612   0.00000  Uiso   1.00
C189   C     0.27051   0.53826   0.06172   0.00000  Uiso   1.00
C190   C     0.24781   0.55506   0.02044   0.00000  Uiso   1.00
C191   C     0.19931   0.52918   1.00388   0.00000  Uiso   1.00
C192   C     0.17503   0.48592   0.02858   0.00000  Uiso   1.00
N193   N     0.19773   0.47040   0.06870   0.00000  Uiso   1.00
C194   C     0.26359   0.47704   0.13216   0.00000  Uiso   1.00
N195   N     0.22853   0.44589   0.16141   0.00000  Uiso   1.00
C196   C     0.24201   0.42766   0.20481   0.00000  Uiso   1.00
C197   C     0.29345   0.44101   0.22110   0.00000  Uiso   1.00
C198   C     0.33079   0.47207   0.19121   0.00000  Uiso   1.00
C199   C     0.31607   0.49020   0.14660   0.00000  Uiso   1.00
H200   H     0.26752   0.58886   1.00230   0.00000  Uiso   1.00
H201   H     0.13757   0.46496   0.01676   0.00000  Uiso   1.00
H202   H     0.21247   0.40301   0.22656   0.00000  Uiso   1.00
H203   H     0.37153   0.48139   0.20165   0.00000  Uiso   1.00
H204   H     0.30694   0.55995   0.07502   0.00000  Uiso   1.00
H205   H     0.34576   0.51327   0.12361   0.00000  Uiso   1.00
C206   C     0.14535   0.23877   0.47686   0.00000  Uiso   1.00
C207   C     0.16844   0.21454   0.43323   0.00000  Uiso   1.00
C208   C     0.22170   0.22972   0.41920   0.00000  Uiso   1.00
C209   C     0.25257   0.26801   0.44877   0.00000  Uiso   1.00
C210   C     0.22958   0.28775   0.49449   0.00000  Uiso   1.00
N211   N     0.17713   0.27353   0.50668   0.00000  Uiso   1.00
C212   C     0.08744   0.22935   0.49092   0.00000  Uiso   1.00
N213   N     0.06883   0.25519   0.53361   0.00000  Uiso   1.00
C214   C     0.01745   0.24611   0.55166   0.00000  Uiso   1.00
C215   C     0.98181   0.20761   0.52752   0.00000  Uiso   1.00
C216   C     0.99877   0.18310   0.48161   0.00000  Uiso   1.00
C217   C     0.05124   0.19412   0.46282   0.00000  Uiso   1.00
H218   H     0.23774   0.21463   0.38291   0.00000  Uiso   1.00
H219   H     0.25165   0.31839   0.51764   0.00000  Uiso   1.00
H220   H     0.00597   0.26510   0.58775   0.00000  Uiso   1.00
H221   H     0.97251   0.15223   0.46269   0.00000  Uiso   1.00
H222   H     0.14596   0.18611   0.40834   0.00000  Uiso   1.00
H223   H     0.06287   0.17296   0.42821   0.00000  Uiso   1.00
C224   C     0.00745   0.89595   0.72468   0.00000  Uiso   1.00
C225   C     0.03680   0.92809   0.68954   0.00000  Uiso   1.00
C226   C     0.01544   0.96911   0.67333   0.00000  Uiso   1.00
C227   C     0.96520   0.97863   0.69233   0.00000  Uiso   1.00
C228   C     0.93739   0.94636   0.72808   0.00000  Uiso   1.00
N229   N     0.95897   0.90632   0.74326   0.00000  Uiso   1.00
C230   C     0.02818   0.85144   0.74226   0.00000  Uiso   1.00
N231   N     1.01117   0.83430   0.78897   0.00000  Uiso   1.00
C232   C     1.02880   0.79358   0.80745   0.00000  Uiso   1.00
C233   C     0.06554   0.76758   0.77817   0.00000  Uiso   1.00
C234   C     0.08288   0.78401   0.72966   0.00000  Uiso   1.00
C235   C     0.06421   0.82572   0.71148   0.00000  Uiso   1.00
H236   H     0.03824  -0.00664   0.64582   0.00000  Uiso   1.00
H237   H     0.89848   0.95251   0.74345   0.00000  Uiso   1.00
H238   H     1.01377   0.78140   0.84468   0.00000  Uiso   1.00
H239   H     0.11075   0.76451   0.70569   0.00000  Uiso   1.00
H240   H     0.07613   0.92225   0.67509   0.00000  Uiso   1.00
H241   H     0.07722   0.83690   0.67340   0.00000  Uiso   1.00
C242   C    -0.03211   0.40350   0.77278   0.00000  Uiso   1.00
C243   C    -0.01190   0.43941   0.73677   0.00000  Uiso   1.00
C244   C    -0.00073   0.49158   0.75276   0.00000  Uiso   1.00
C245   C    -0.00939   0.50760   0.80435   0.00000  Uiso   1.00
C246   C     0.96310   0.47160   0.83702   0.00000  Uiso   1.00
N247   N     0.95370   0.42099   0.82099   0.00000  Uiso   1.00
C248   C     0.96397   0.34718   0.76093   0.00000  Uiso   1.00
N249   N     0.92847   0.31513   0.78888   0.00000  Uiso   1.00
C250   C     0.92062   0.26328   0.77847   0.00000  Uiso   1.00
C251   C     0.94886   0.24096   0.73729   0.00000  Uiso   1.00
C252   C     0.98910   0.27259   0.71118   0.00000  Uiso   1.00
C253   C    -0.00342   0.32578   0.72256   0.00000  Uiso   1.00
H254   H     0.01998   0.51817   0.72621   0.00000  Uiso   1.00
H255   H     0.95496   0.48260   0.87701   0.00000  Uiso   1.00
H256   H     0.88881   0.24011   0.79912   0.00000  Uiso   1.00
H257   H     0.01095   0.25693   0.67853   0.00000  Uiso   1.00
H258   H    -0.00232   0.42735   0.69739   0.00000  Uiso   1.00
H259   H     0.02644   0.34973   0.70048   0.00000  Uiso   1.00
C260   C     0.88095   0.74966   1.03012   0.00000  Uiso   1.00
C261   C     0.84111   0.71988   1.05896   0.00000  Uiso   1.00
C262   C     0.79351   0.73822   1.07255   0.00000  Uiso   1.00
C263   C     0.78470   0.78596   0.05746   0.00000  Uiso   1.00
C264   C     0.82480   0.81430   0.02796   0.00000  Uiso   1.00
N265   N     0.87117   0.79570   0.01525   0.00000  Uiso   1.00
C266   C     0.93216   0.73156   1.01301   0.00000  Uiso   1.00
N267   N     0.96447   0.75846   0.97800   0.00000  Uiso   1.00
C268   C     0.00912   0.74199   0.95625   0.00000  Uiso   1.00
C269   C     0.02297   0.69497   0.96825   0.00000  Uiso   1.00
C270   C     0.99259   0.66827   1.00674   0.00000  Uiso   1.00
C271   C     0.94742   0.68647   1.02941   0.00000  Uiso   1.00
H272   H     0.76358   0.71498   1.09531   0.00000  Uiso   1.00
H273   H     0.81964   0.85135   0.01560   0.00000  Uiso   1.00
H274   H     0.03242   0.76446   0.92778   0.00000  Uiso   1.00
H275   H     1.00183   0.63175   1.01710   0.00000  Uiso   1.00
H276   H     0.84559   0.68258   1.07085   0.00000  Uiso   1.00
H277   H     0.92447   0.66410   1.05807   0.00000  Uiso   1.00
C278   C     0.51338   0.67916   0.29255   0.00000  Uiso   1.00
C279   C     0.56574   0.70360   0.29656   0.00000  Uiso   1.00
C280   C     0.58205   0.74987   0.27367   0.00000  Uiso   1.00
C281   C     0.54662   0.77220   0.24685   0.00000  Uiso   1.00
C282   C     0.49369   0.74893   0.24714   0.00000  Uiso   1.00
N283   N     0.47889   0.70315   0.26879   0.00000  Uiso   1.00
C284   C     0.49608   0.62553   0.30750   0.00000  Uiso   1.00
N285   N     0.45259   0.59852   0.28606   0.00000  Uiso   1.00
C286   C     0.43440   0.54892   0.29546   0.00000  Uiso   1.00
C287   C     0.46022   0.52265   0.32869   0.00000  Uiso   1.00
C288   C     0.50526   0.54951   0.35155   0.00000  Uiso   1.00
C289   C     0.52339   0.60088   0.34108   0.00000  Uiso   1.00
H290   H     0.62349   0.76643   0.27372   0.00000  Uiso   1.00
H291   H     0.46534   0.76455   0.22627   0.00000  Uiso   1.00
H292   H     0.39870   0.53081   0.27786   0.00000  Uiso   1.00
H293   H     0.52557   0.53129   0.37836   0.00000  Uiso   1.00
H294   H     0.59505   0.68572   0.31359   0.00000  Uiso   1.00
H295   H     0.55758   0.62095   0.35997   0.00000  Uiso   1.00
loop_
_geom_bond_atom_site_label_1
_geom_bond_atom_site_label_2
_geom_bond_distance
_geom_bond_site_symmetry_2
_ccdc_geom_bond_type
Gd0    O3      2.257   .     S
Gd0    O4      2.199   .     S
Gd0    O6      2.253   .     S
Gd0    O7      2.237   .     S
Gd0    O8      2.255   .     S
Gd0    O11     2.250   .     S
Gd1    O2      2.192   .     S
Gd1    O5      2.244   .     S
Gd1    O10     2.244   .     S
Gd1    O13     2.237   .     S
Gd1    O14     2.233   .     S
Gd1    O15     2.244   .     S
O2     C16     1.262   .     A
O3     C16     1.275   .     A
O4     C12     1.264   .     A
O5     C12     1.271   .     A
O6     C9      1.271   .     A
O7     C9      1.262   .     A
O8     C19     1.275   .     A
C9     C233    1.470   .     S
O10    C19     1.277   .     A
O11    C18     1.278   .     A
C12    C179    1.458   .     S
O13    C18     1.273   .     A
O14    C17     1.262   .     A
O15    C17     1.269   .     A
C16    C245    1.475   .     S
C17    C191    1.463   .     S
C18    C269    1.480   .     S
C19    C89     1.485   .     S
Gd20   O23     2.266   .     S
Gd20   O24     2.208   .     S
Gd20   O26     2.278   .     S
Gd20   O27     2.236   .     S
Gd20   O28     2.254   .     S
Gd20   O31     2.235   .     S
Gd21   O22     2.203   .     S
Gd21   O25     2.260   .     S
Gd21   O30     2.239   .     S
Gd21   O33     2.253   .     S
Gd21   O34     2.235   .     S
Gd21   O35     2.269   .     S
O22    C36     1.264   .     A
O23    C36     1.279   .     A
O24    C32     1.265   .     A
O25    C32     1.276   .     A
O26    C29     1.268   .     A
O27    C29     1.255   .     A
O28    C39     1.276   .     A
C29    C263    1.480   .     S
O30    C39     1.277   .     A
O31    C38     1.276   .     A
C32    C281    1.477   .     S
O33    C38     1.277   .     A
O34    C37     1.257   .     A
O35    C37     1.269   .     A
C36    C83     1.488   .     S
C37    C107    1.476   1_565 S
C38    C143    1.489   .     S
C39    C161    1.492   .     S
Gd40   O43     2.262   .     S
Gd40   O44     2.190   .     S
Gd40   O47     2.228   .     S
Gd40   O48     2.249   .     S
Gd40   O51     2.248   .     S
Gd40   O46     2.259   1_545 S
Gd41   O42     2.191   .     S
Gd41   O45     2.260   .     S
Gd41   O50     2.248   .     S
Gd41   O53     2.241   .     S
Gd41   O54     2.227   .     S
Gd41   O55     2.255   .     S
O42    C56     1.260   .     A
O43    C56     1.274   .     A
O44    C52     1.260   .     A
O45    C52     1.273   .     A
O46    Gd40    2.259   1_565 S
O46    C49     1.270   1_565 A
O47    C49     1.258   .     A
O48    C59     1.275   .     A
C49    O46     1.270   1_545 A
C49    C227    1.469   1_545 S
O50    C59     1.278   .     A
O51    C58     1.278   .     A
C52    C215    1.463   .     S
O53    C58     1.274   .     A
O54    C57     1.258   .     A
O55    C57     1.270   .     A
C56    C251    1.467   .     S
C57    C119    1.465   .     S
C58    C137    1.485   .     S
C59    C155    1.487   .     S
Gd60   O63     2.258   .     S
Gd60   O64     2.187   .     S
Gd60   O66     2.239   .     S
Gd60   O67     2.236   .     S
Gd60   O68     2.241   .     S
Gd60   O71     2.250   .     S
Gd61   O62     2.182   .     S
Gd61   O65     2.267   .     S
Gd61   O70     2.252   .     S
Gd61   O73     2.249   .     S
Gd61   O74     2.249   .     S
Gd61   O75     2.238   .     S
O62    C76     1.262   .     A
O63    C76     1.276   .     A
O64    C72     1.261   .     A
O65    C72     1.276   .     A
O66    C69     1.269   .     A
O67    C69     1.262   .     A
O68    C79     1.270   .     A
C69    C197    1.461   .     S
O70    C79     1.277   .     A
O71    C78     1.278   .     A
C72    C209    1.470   .     S
O73    C78     1.275   .     A
O74    C77     1.264   .     A
O75    C77     1.270   .     A
C76    C173    1.467   .     S
C77    C125    1.466   .     S
C78    C287    1.489   .     S
C79    C101    1.473   .     S
C80    C81     1.413   .     A
C80    C86     1.490   .     S
C80    N85     1.358   1_556 A
C81    H96     1.081   .     S
C81    C82     1.405   1_556 A
C82    C83     1.401   .     A
C82    H92     1.083   .     S
C82    C81     1.405   1_554 A
C83    C84     1.410   .     A
C84    N85     1.358   .     A
C84    H93     1.083   .     S
N85    C80     1.358   1_554 A
C86    N87     1.368   .     A
C86    C91     1.401   .     A
N87    C88     1.367   .     A
C88    C89     1.402   .     A
C88    H94     1.082   .     S
C89    C90     1.406   .     A
C90    C91     1.392   .     A
C90    H95     1.083   .     S
C91    H97     1.081   .     S
C98    C99     1.405   .     A
C98    N103    1.365   .     A
C98    C104    1.485   .     S
C99    C100    1.395   .     A
C99    H114    1.081   .     S
C100   C101    1.402   .     A
C100   H110    1.083   .     S
C101   C102    1.400   .     A
C102   N103    1.362   .     A
C102   H111    1.083   .     S
C104   N105    1.361   .     A
C104   C109    1.411   .     A
N105   C106    1.357   .     A
C106   C107    1.404   .     A
C106   H112    1.083   1_545 S
C107   C108    1.401   .     A
C107   C37     1.476   1_545 S
C108   C109    1.399   .     A
C108   H113    1.083   .     S
C109   H115    1.081   .     S
H112   C106    1.083   1_565 S
C116   C117    1.406   .     A
C116   N121    1.359   .     A
C116   C122    1.472   .     S
C117   C118    1.394   .     A
C117   H132    1.081   .     S
C118   C119    1.399   .     A
C118   H128    1.082   .     S
C119   C120    1.401   .     A
C120   N121    1.354   .     A
C120   H129    1.082   .     S
C122   N123    1.362   .     A
C122   C127    1.404   .     A
N123   C124    1.357   .     A
C124   C125    1.399   .     A
C124   H130    1.083   .     S
C125   C126    1.402   .     A
C126   C127    1.391   .     A
C126   H131    1.083   .     S
C127   H133    1.081   .     S
C134   C135    1.410   .     A
C134   N139    1.362   .     A
C134   C140    1.494   1_545 S
C135   C136    1.402   .     A
C135   H150    1.079   .     S
C136   C137    1.403   .     A
C136   H146    1.083   .     S
C137   C138    1.403   .     A
C138   N139    1.359   .     A
C138   H147    1.080   .     S
C140   N141    1.363   .     A
C140   C145    1.408   .     A
C140   C134    1.494   1_565 S
N141   C142    1.360   .     A
C142   C143    1.404   1_556 A
C142   H148    1.082   1_556 S
C143   C142    1.404   1_554 A
C143   C144    1.405   1_554 A
C144   C145    1.402   .     A
C144   H149    1.083   .     S
C144   C143    1.405   1_556 A
C145   H151    1.079   .     S
H148   C142    1.082   1_554 S
C152   C153    1.409   .     A
C152   C158    1.494   .     S
C152   N157    1.362   1_565 A
C153   H168    1.080   .     S
C153   C154    1.405   1_565 A
C154   C155    1.405   .     A
C154   H164    1.083   .     S
C154   C153    1.405   1_545 A
C155   C156    1.403   .     A
C156   N157    1.359   .     A
C156   H165    1.081   .     S
N157   C152    1.362   1_545 A
C158   N159    1.362   .     A
C158   C163    1.408   .     A
N159   C160    1.360   .     A
C160   C161    1.405   .     A
C160   H166    1.082   .     S
C161   C162    1.407   .     A
C162   C163    1.405   .     A
C162   H167    1.083   .     S
C163   H169    1.081   .     S
C170   C171    1.402   .     A
C170   N175    1.364   .     A
C170   C176    1.477   .     S
C171   C172    1.388   .     A
C171   H186    1.082   .     S
C172   C173    1.402   .     A
C172   H182    1.085   .     S
C173   C174    1.402   .     A
C174   N175    1.363   .     A
C174   H183    1.083   .     S
C176   N177    1.359   .     A
C176   C181    1.410   .     A
N177   C178    1.357   .     A
C178   C179    1.402   .     A
C178   H184    1.082   .     S
C179   C180    1.395   .     A
C180   C181    1.396   .     A
C180   H185    1.084   .     S
C181   H187    1.082   .     S
C188   C189    1.405   .     A
C188   N193    1.361   .     A
C188   C194    1.472   .     S
C189   C190    1.394   .     A
C189   H204    1.081   .     S
C190   C191    1.401   1_554 A
C190   H200    1.083   1_554 S
C191   C190    1.401   1_556 A
C191   C192    1.398   1_556 A
C192   N193    1.354   .     A
C192   H201    1.083   .     S
C192   C191    1.398   1_554 A
C194   N195    1.361   .     A
C194   C199    1.405   .     A
N195   C196    1.354   .     A
C196   C197    1.396   .     A
C196   H202    1.082   .     S
C197   C198    1.401   .     A
C198   C199    1.393   .     A
C198   H203    1.083   .     S
C199   H205    1.081   .     S
H200   C190    1.083   1_556 S
C206   C207    1.408   .     A
C206   N211    1.364   .     A
C206   C212    1.492   .     S
C207   C208    1.395   .     A
C207   H222    1.079   .     S
C208   C209    1.401   .     A
C208   H218    1.084   .     S
C209   C210    1.401   .     A
C210   N211    1.362   .     A
C210   H219    1.083   .     S
C212   N213    1.364   .     A
C212   C217    1.410   .     A
N213   C214    1.361   .     A
C214   H220    1.082   .     S
C214   C215    1.400   1_455 A
C215   C216    1.399   .     A
C215   C214    1.400   1_655 A
C216   H221    1.085   .     S
C216   C217    1.396   1_655 A
C217   H223    1.078   .     S
C217   C216    1.396   1_455 A
C224   C225    1.403   .     A
C224   C230    1.475   .     S
C224   N229    1.363   1_455 A
C225   C226    1.390   .     A
C225   H240    1.081   .     S
C226   C227    1.400   1_455 A
C226   H236    1.083   1_565 S
C227   C228    1.401   .     A
C227   C226    1.400   1_655 A
C227   C49     1.469   1_565 S
C228   N229    1.360   .     A
C228   H237    1.081   .     S
N229   C224    1.363   1_655 A
C230   C235    1.404   .     A
C230   N231    1.361   1_455 A
N231   C232    1.359   .     A
N231   C230    1.361   1_655 A
C232   H238    1.081   .     S
C232   C233    1.402   1_655 A
C233   C234    1.400   .     A
C233   C232    1.402   1_455 A
C234   C235    1.391   .     A
C234   H239    1.083   .     S
C235   H241    1.081   .     S
H236   C226    1.083   1_545 S
C242   C243    1.408   .     A
C242   N247    1.360   1_455 A
C242   C248    1.484   1_455 S
C243   C244    1.399   .     A
C243   H258    1.082   .     S
C244   C245    1.401   .     A
C244   H254    1.083   .     S
C245   C246    1.406   1_455 A
C246   N247    1.359   .     A
C246   H255    1.083   .     S
C246   C245    1.406   1_655 A
N247   C242    1.360   1_655 A
C248   N249    1.361   .     A
C248   C242    1.484   1_655 S
C248   C253    1.406   1_655 A
N249   C250    1.360   .     A
C250   C251    1.403   .     A
C250   H256    1.083   .     S
C251   C252    1.400   .     A
C252   C253    1.398   1_655 A
C252   H257    1.082   1_655 S
C253   H259    1.082   .     S
C253   C248    1.406   1_455 A
C253   C252    1.398   1_455 A
H257   C252    1.082   1_455 S
C260   C261    1.406   .     A
C260   C266    1.493   .     S
C260   N265    1.366   1_556 A
C261   C262    1.393   .     A
C261   H276    1.079   .     S
C262   H272    1.083   .     S
C262   C263    1.402   1_556 A
C263   C264    1.401   .     A
C263   C262    1.402   1_554 A
C264   N265    1.364   .     A
C264   H273    1.082   .     S
N265   C260    1.366   1_554 A
C266   N267    1.362   .     A
C266   C271    1.412   .     A
N267   C268    1.360   1_655 A
C268   C269    1.404   .     A
C268   H274    1.081   .     S
C268   N267    1.360   1_455 A
C269   C270    1.401   1_455 A
C270   C271    1.399   .     A
C270   H275    1.084   .     S
C270   C269    1.401   1_655 A
C271   H277    1.079   .     S
C278   C279    1.403   .     A
C278   N283    1.368   .     A
C278   C284    1.491   .     S
C279   C280    1.396   .     A
C279   H294    1.081   .     S
C280   C281    1.405   .     A
C280   H290    1.084   .     S
C281   C282    1.400   .     A
C282   N283    1.365   .     A
C282   H291    1.083   .     S
C284   N285    1.358   .     A
C284   C289    1.412   .     A
N285   C286    1.356   .     A
C286   C287    1.408   .     A
C286   H292    1.079   .     S
C287   C288    1.403   .     A
C288   C289    1.406   .     A
C288   H293    1.082   .     S
C289   H295    1.081   .     S
