data_lcy+N139+E183
_audit_creation_date              2025-01-21
_audit_creation_method            'Materials Studio'
_symmetry_space_group_name_H-M    'P1'
_symmetry_Int_Tables_number       1
_symmetry_cell_setting            triclinic
loop_
_symmetry_equiv_pos_as_xyz
  x,y,z
_cell_length_a                    20.9220
_cell_length_b                    24.0014
_cell_length_c                    20.6785
_cell_angle_alpha                 100.8121
_cell_angle_beta                  85.3795
_cell_angle_gamma                 90.2559
loop_
_atom_site_label
_atom_site_type_symbol
_atom_site_fract_x
_atom_site_fract_y
_atom_site_fract_z
_atom_site_U_iso_or_equiv
_atom_site_adp_type
_atom_site_occupancy
C0     C     0.98381   0.47509   0.81049   0.00000  Uiso   1.00
Sm1    Sm    0.02870   0.63806   0.91249   0.00000  Uiso   1.00
Sm2    Sm    0.05584   0.56865   0.82454   0.00000  Uiso   1.00
C3     C     0.10571   0.54544   0.95614   0.00000  Uiso   1.00
C4     C     0.13756   0.52906   0.71860   0.00000  Uiso   1.00
O5     O     0.12965   0.66329   0.88549   0.00000  Uiso   1.00
O6     O     0.07748   0.71485   0.96677   0.00000  Uiso   1.00
O7     O     0.00485   0.61927   0.75979   0.00000  Uiso   1.00
O8     O    -0.00770   0.68964   0.84519   0.00000  Uiso   1.00
O9     O    -0.07120   0.63736   0.96312   0.00000  Uiso   1.00
O10    O    -0.01324   0.70829   0.99380   0.00000  Uiso   1.00
O11    O    -0.03105   0.51933   0.85232   0.00000  Uiso   1.00
O12    O     0.02914   0.48269   0.76883   0.00000  Uiso   1.00
O13    O     0.07184   0.58949   0.97939   0.00000  Uiso   1.00
O14    O     0.10918   0.52494   0.89375   0.00000  Uiso   1.00
O15    O     0.14850   0.57260   0.76084   0.00000  Uiso   1.00
O16    O     0.08567   0.50513   0.73228   0.00000  Uiso   1.00
C17    C     0.13082   0.70495   0.93305   0.00000  Uiso   1.00
C18    C    -0.01167   0.67080   0.78407   0.00000  Uiso   1.00
C19    C     0.93165   0.68637   0.99802   0.00000  Uiso   1.00
C20    C     0.49664   0.79766   0.25286   0.00000  Uiso   1.00
Sm21   Sm    0.63626   0.96718   0.07687   0.00000  Uiso   1.00
Sm22   Sm    0.48744   0.88345   0.18870   0.00000  Uiso   1.00
C23    C     0.61342   0.84533   0.08149   0.00000  Uiso   1.00
C24    C     0.42087   0.83500   1.09070   0.00000  Uiso   1.00
O25    O     0.64219   0.98888  -0.02419   0.00000  Uiso   1.00
O26    O     0.72535   0.95515   1.01150   0.00000  Uiso   1.00
O27    O     0.51813   0.97446   0.22230   0.00000  Uiso   1.00
O28    O     0.53782   0.99161   0.12242   0.00000  Uiso   1.00
O29    O     0.66873   0.95537   0.17339   0.00000  Uiso   1.00
O30    O     0.68875   1.03516   0.14185   0.00000  Uiso   1.00
O31    O     0.51356   0.84786   0.27623   0.00000  Uiso   1.00
O32    O     0.46712   0.79312   0.20011   0.00000  Uiso   1.00
O33    O     0.59890   0.87976   0.04485   0.00000  Uiso   1.00
O34    O     0.58271   0.84537   0.13737   0.00000  Uiso   1.00
O35    O     0.44080   0.88593   0.09703   0.00000  Uiso   1.00
O36    O     0.43925   0.80728   0.13318   0.00000  Uiso   1.00
C37    C     0.70144   0.97428   0.96514   0.00000  Uiso   1.00
C38    C     0.53170   1.00900   0.18402   0.00000  Uiso   1.00
C39    C     0.69521   1.00376   0.18495   0.00000  Uiso   1.00
C40    C     0.89488   1.06254   0.48153   0.00000  Uiso   1.00
Sm41   Sm    1.07297   0.07098   0.74541   0.00000  Uiso   1.00
Sm42   Sm    0.95482   0.11004   0.59098   0.00000  Uiso   1.00
C43    C     1.10659   0.13395   0.61899   0.00000  Uiso   1.00
C44    C     0.86529   0.18486   0.58314   0.00000  Uiso   1.00
O45    O     0.98470   0.12769   0.76869   0.00000  Uiso   1.00
O46    O     1.06296   0.15225   0.82403   0.00000  Uiso   1.00
O47    O     0.93612   0.03006   0.63170   0.00000  Uiso   1.00
O48    O     0.97256   0.08420   0.71651   0.00000  Uiso   1.00
O49    O     1.06494  -0.01627   0.68503   0.00000  Uiso   1.00
O50    O     1.03784  -0.00239   0.78987   0.00000  Uiso   1.00
O51    O     0.95396   0.07171   0.48109   0.00000  Uiso   1.00
O52    O     0.86715   0.07536   0.53897   0.00000  Uiso   1.00
O53    O     1.11377   0.12849   0.67822   0.00000  Uiso   1.00
O54    O     1.06530   0.10726   0.58231   0.00000  Uiso   1.00
O55    O     0.85399   0.13417   0.59096   0.00000  Uiso   1.00
O56    O     0.92458   0.19720   0.57751   0.00000  Uiso   1.00
C57    C     1.00796   0.16654   0.80990   0.00000  Uiso   1.00
C58    C     0.93783   0.04221   0.69363   0.00000  Uiso   1.00
C59    C     1.04241   0.96241   0.73435   0.00000  Uiso   1.00
C60    C     0.33194   0.45925   0.19337   0.00000  Uiso   1.00
Sm61   Sm    0.47553   0.35976   0.43623   0.00000  Uiso   1.00
Sm62   Sm    0.42062   0.43127   0.26571   0.00000  Uiso   1.00
C63    C     0.50724   0.32826   0.28866   0.00000  Uiso   1.00
C64    C     0.51435   0.50301   0.27615   0.00000  Uiso   1.00
O65    O     0.56837   0.38190   0.48336   0.00000  Uiso   1.00
O66    O     0.54098   0.29470   0.45552   0.00000  Uiso   1.00
O67    O     0.34808   0.42110   0.35101   0.00000  Uiso   1.00
O68    O     0.42288   0.43711   0.42124   0.00000  Uiso   1.00
O69    O     0.38754   0.30743   0.41983   0.00000  Uiso   1.00
O70    O     0.40873   0.34225   0.51969   0.00000  Uiso   1.00
O71    O     0.35362   0.40877   0.18699   0.00000  Uiso   1.00
O72    O     0.35560   0.49557   0.23848   0.00000  Uiso   1.00
O73    O     0.52555   0.36161   0.33801   0.00000  Uiso   1.00
O74    O     0.47025   0.34585   0.25097   0.00000  Uiso   1.00
O75    O     0.48679   0.48598   0.32585   0.00000  Uiso   1.00
O76    O     0.50553   0.47302   0.21920   0.00000  Uiso   1.00
C77    C     0.58357   0.32932   0.47862   0.00000  Uiso   1.00
C78    C     0.36439   0.43261   0.41054   0.00000  Uiso   1.00
C79    C     0.37181   0.31133   0.48168   0.00000  Uiso   1.00
C80    C     0.37261   0.81346   1.04493   0.00000  Uiso   1.00
C81    C     0.30046   0.75088   0.97938   0.00000  Uiso   1.00
C82    C     0.26738   0.79999   1.00300   0.00000  Uiso   1.00
S83    S     0.26120   0.69594   0.93612   0.00000  Uiso   1.00
S84    S     0.18806   0.80284   0.99244   0.00000  Uiso   1.00
S85    S     0.37653   0.74538   1.00043   0.00000  Uiso   1.00
S86    S     0.30479   0.85369   0.04940   0.00000  Uiso   1.00
C87    C     0.19035   0.73423   0.95000   0.00000  Uiso   1.00
C88    C     0.52439   0.26775   0.27592   0.00000  Uiso   1.00
C89    C     0.55071   0.17192   0.21586   0.00000  Uiso   1.00
C90    C     0.52087   0.16565   0.27497   0.00000  Uiso   1.00
S91    S     0.57009   0.11325   0.15871   0.00000  Uiso   1.00
S92    S     0.50591   0.09893   0.28890   0.00000  Uiso   1.00
S93    S     0.56242   0.23847   0.20038   0.00000  Uiso   1.00
S94    S     0.49465   0.22531   0.32929   0.00000  Uiso   1.00
C95    C     0.53783   0.07009   0.21040   0.00000  Uiso   1.00
C96    C     0.81440   0.21886   0.56688   0.00000  Uiso   1.00
C97    C     0.72410   0.23960   0.51069   0.00000  Uiso   1.00
C98    C     0.74327   0.29035   0.54422   0.00000  Uiso   1.00
S99    S     0.65842   0.23676   0.46898   0.00000  Uiso   1.00
S100   S     0.69786   0.34878   0.54301   0.00000  Uiso   1.00
S101   S     0.76423   0.18080   0.51529   0.00000  Uiso   1.00
S102   S     0.81025   0.29127   0.58610   0.00000  Uiso   1.00
C103   C     0.64397   0.30785   0.49608   0.00000  Uiso   1.00
C104   C     0.89166   0.01951   0.73970   0.00000  Uiso   1.00
C105   C     0.83790   1.00610   0.84448   0.00000  Uiso   1.00
C106   C     0.79252  -0.00473   0.80085   0.00000  Uiso   1.00
S107   S     0.82126   0.99888   0.92293   0.00000  Uiso   1.00
S108   S     0.71746   0.97944   0.83031   0.00000  Uiso   1.00
S109   S     0.90980   0.02874   0.82018   0.00000  Uiso   1.00
S110   S     0.81407   0.00068   0.72106   0.00000  Uiso   1.00
C111   C     0.74315   0.98342   0.90827   0.00000  Uiso   1.00
C112   C     0.85989   1.04390   0.42221   0.00000  Uiso   1.00
C113   C     0.82353   1.03406   0.31073   0.00000  Uiso   1.00
C114   C     0.77074   1.02837   0.35131   0.00000  Uiso   1.00
S115   S     0.81434   1.03074   0.22933   0.00000  Uiso   1.00
S116   S     0.69900   1.01703   0.31808   0.00000  Uiso   1.00
S117   S     0.89538   1.04373   0.34391   0.00000  Uiso   1.00
S118   S     0.77918   1.03329   0.43294   0.00000  Uiso   1.00
C119   C     0.73347   1.01934   0.24115   0.00000  Uiso   1.00
C120   C     0.31745   0.44626   0.46833   0.00000  Uiso   1.00
C121   C     0.27350   0.48199   0.58214   0.00000  Uiso   1.00
C122   C     0.22230   0.47174   0.54524   0.00000  Uiso   1.00
S123   S     0.26128   0.50846   0.66426   0.00000  Uiso   1.00
S124   S     0.14818   0.48449   0.58452   0.00000  Uiso   1.00
S125   S     0.34742   0.46751   0.54424   0.00000  Uiso   1.00
S126   S     0.23592   0.44666   0.46239   0.00000  Uiso   1.00
C127   C     0.18007   0.50758   0.65959   0.00000  Uiso   1.00
C128   C     0.14660   0.52495   1.00134   0.00000  Uiso   1.00
C129   C     0.21492   0.52571   0.09285   0.00000  Uiso   1.00
C130   C     0.21675   0.47160   0.05837   0.00000  Uiso   1.00
S131   S     0.25819   0.54275   0.15960   0.00000  Uiso   1.00
S132   S     0.26176   0.42330   0.08603   0.00000  Uiso   1.00
S133   S     0.16990   0.57407   0.06643   0.00000  Uiso   1.00
S134   S     0.17543   0.45657  -0.01067   0.00000  Uiso   1.00
C135   C     0.28539   0.47404   0.14983   0.00000  Uiso   1.00
C136   C     0.31789   0.28050   0.50728   0.00000  Uiso   1.00
C137   C     0.24694   0.23284   0.57869   0.00000  Uiso   1.00
C138   C     0.22603   0.21787   0.51734   0.00000  Uiso   1.00
S139   S     0.20874   0.20661   0.64134   0.00000  Uiso   1.00
S140   S     0.16191   0.17383   0.50774   0.00000  Uiso   1.00
S141   S     0.31014   0.27677   0.58938   0.00000  Uiso   1.00
S142   S     0.26562   0.24391   0.45483   0.00000  Uiso   1.00
C143   C     1.15596   0.16935   0.59011   0.00000  Uiso   1.00
C144   C     1.02207   0.90278   0.72848   0.00000  Uiso   1.00
C145   C     1.01614   0.79812   0.70373   0.00000  Uiso   1.00
C146   C     0.96671   0.81631   0.74912   0.00000  Uiso   1.00
S147   S     1.03357   0.72736   0.68664   0.00000  Uiso   1.00
S148   S    -0.07626   0.76787   0.78319   0.00000  Uiso   1.00
S149   S     1.06378   0.84791   0.67594   0.00000  Uiso   1.00
S150   S     0.95687   0.88699   0.77741   0.00000  Uiso   1.00
C151   C    -0.02570   0.71323   0.74402   0.00000  Uiso   1.00
C152   C     0.95989   0.41862   0.81662   0.00000  Uiso   1.00
C153   C     0.95934   0.31553   0.78944   0.00000  Uiso   1.00
C154   C     0.96409   0.32824   0.85534   0.00000  Uiso   1.00
S155   S     0.96571   0.24735   0.75029   0.00000  Uiso   1.00
S156   S     0.98321   0.27422   0.89398   0.00000  Uiso   1.00
S157   S     0.95686   0.36849   0.74651   0.00000  Uiso   1.00
S158   S    -0.03984   0.39778   0.89236   0.00000  Uiso   1.00
C159   C     0.98246   0.22506   0.82091   0.00000  Uiso   1.00
C160   C     0.67366   0.81204   0.06522   0.00000  Uiso   1.00
C161   C     0.78776   0.78823   1.03993   0.00000  Uiso   1.00
C162   C     0.76096   0.74279   0.06133   0.00000  Uiso   1.00
S163   S     0.86687   0.78684   1.01680   0.00000  Uiso   1.00
S164   S     0.80843   0.68507   0.05895   0.00000  Uiso   1.00
S165   S     0.74004   0.84310   1.03434   0.00000  Uiso   1.00
S166   S     0.68093   0.74598   0.08558   0.00000  Uiso   1.00
C167   C     0.87422   0.71860   1.02926   0.00000  Uiso   1.00
C168   C     0.52452   0.74886   0.27221   0.00000  Uiso   1.00
C169   C     0.53500   0.66349   0.31601   0.00000  Uiso   1.00
C170   C     0.56028   0.65237   0.25262   0.00000  Uiso   1.00
S171   S     0.52375   0.60823   0.35569   0.00000  Uiso   1.00
S172   S     0.56060   0.58405   0.21235   0.00000  Uiso   1.00
S173   S     0.50335   0.72913   0.34634   0.00000  Uiso   1.00
S174   S     0.57328   0.70712   0.21251   0.00000  Uiso   1.00
C175   C     0.54028   0.56004   0.28317   0.00000  Uiso   1.00
loop_
_geom_bond_atom_site_label_1
_geom_bond_atom_site_label_2
_geom_bond_distance
_geom_bond_site_symmetry_2
_ccdc_geom_bond_type
C0     C152    1.467   .     S
C0     O11     1.260   1_655 A
C0     O12     1.265   1_655 A
Sm1    O5      2.250   .     S
Sm1    O6      2.256   .     S
Sm1    O8      2.208   .     S
Sm1    O9      2.262   .     S
Sm1    O10     2.270   .     S
Sm1    O13     2.214   .     S
Sm2    O7      2.293   .     S
Sm2    O11     2.259   .     S
Sm2    O12     2.258   .     S
Sm2    O14     2.286   .     S
Sm2    O15     2.266   .     S
Sm2    O16     2.254   .     S
C3     O13     1.269   .     A
C3     O14     1.288   .     A
C3     C128    1.467   .     S
C4     O15     1.263   .     A
C4     O16     1.263   .     A
C4     C127    1.462   .     S
O5     C17     1.266   .     A
O6     C17     1.266   .     A
O7     C18     1.282   .     A
O8     C18     1.269   .     A
O9     C19     1.263   1_455 A
O10    C19     1.269   1_455 A
O11    C0      1.260   1_455 A
O12    C0      1.265   1_455 A
C17    C87     1.462   .     S
C18    C151    1.472   .     S
C19    C167    1.468   .     S
C19    O9      1.263   1_655 A
C19    O10     1.269   1_655 A
C20    O31     1.271   .     A
C20    O32     1.283   .     A
C20    C168    1.446   .     S
Sm21   O25     2.241   .     S
Sm21   O28     2.228   .     S
Sm21   O29     2.227   .     S
Sm21   O30     2.252   .     S
Sm21   O33     2.236   .     S
Sm21   O26     2.200   1_554 S
Sm22   O27     2.271   .     S
Sm22   O31     2.247   .     S
Sm22   O32     2.259   .     S
Sm22   O34     2.290   .     S
Sm22   O35     2.211   .     S
Sm22   O36     2.250   .     S
C23    O33     1.274   .     A
C23    O34     1.276   .     A
C23    C160    1.477   .     S
C24    C80     1.466   .     S
C24    O35     1.277   1_556 A
C24    O36     1.280   1_556 A
O25    C37     1.280   1_554 A
O26    C37     1.275   .     A
O26    Sm21    2.200   1_556 S
O27    C38     1.266   .     A
O28    C38     1.260   .     A
O29    C39     1.275   .     A
O30    C39     1.286   .     A
O35    C24     1.277   1_554 A
O36    C24     1.280   1_554 A
C37    C111    1.457   .     S
C37    O25     1.280   1_556 A
C38    C95     1.474   1_565 S
C39    C119    1.454   .     S
C40    C112    1.475   .     S
C40    O51     1.254   1_565 A
C40    O52     1.263   1_565 A
Sm41   O45     2.265   .     S
Sm41   O46     2.291   .     S
Sm41   O48     2.269   .     S
Sm41   O49     2.241   .     S
Sm41   O50     2.230   .     S
Sm41   O53     2.254   .     S
Sm42   O47     2.257   .     S
Sm42   O51     2.287   .     S
Sm42   O52     2.277   .     S
Sm42   O54     2.304   .     S
Sm42   O55     2.190   .     S
Sm42   O56     2.261   .     S
C43    O53     1.277   .     A
C43    O54     1.285   .     A
C43    C143    1.493   .     S
C44    O55     1.276   .     A
C44    O56     1.275   .     A
C44    C96     1.443   .     S
O45    C57     1.264   .     A
O46    C57     1.274   .     A
O47    C58     1.262   .     A
O48    C58     1.280   .     A
O49    C59     1.281   1_545 A
O50    C59     1.289   1_545 A
O51    C40     1.254   1_545 A
O52    C40     1.263   1_545 A
C57    C159    1.475   .     S
C58    C104    1.476   .     S
C59    C144    1.477   .     S
C59    O49     1.281   1_565 A
C59    O50     1.289   1_565 A
C60    O71     1.275   .     A
C60    O72     1.281   .     A
C60    C135    1.466   .     S
Sm61   O65     2.260   .     S
Sm61   O66     2.194   .     S
Sm61   O68     2.246   .     S
Sm61   O69     2.236   .     S
Sm61   O70     2.233   .     S
Sm61   O73     2.217   .     S
Sm62   O67     2.281   .     S
Sm62   O71     2.222   .     S
Sm62   O72     2.240   .     S
Sm62   O74     2.260   .     S
Sm62   O75     2.199   .     S
Sm62   O76     2.270   .     S
C63    O73     1.258   .     A
C63    O74     1.268   .     A
C63    C88     1.467   .     S
C64    O75     1.271   .     A
C64    O76     1.286   .     A
C64    C175    1.456   .     S
O65    C77     1.287   .     A
O66    C77     1.275   .     A
O67    C78     1.284   .     A
O68    C78     1.261   .     A
O69    C79     1.281   .     A
O70    C79     1.280   .     A
C77    C103    1.464   .     S
C78    C120    1.472   .     S
C79    C136    1.464   .     S
C80    S85     1.717   .     A
C80    S86     1.706   1_556 A
C81    C82     1.358   .     A
C81    S83     1.697   .     A
C81    S85     1.696   .     A
C82    S84     1.695   .     A
C82    S86     1.686   1_556 A
S83    C87     1.723   .     A
S84    C87     1.713   .     A
S86    C80     1.706   1_554 A
S86    C82     1.686   1_554 A
C88    S93     1.721   .     A
C88    S94     1.717   .     A
C89    C90     1.361   .     A
C89    S91     1.687   .     A
C89    S93     1.700   .     A
C90    S92     1.703   .     A
C90    S94     1.708   .     A
S91    C95     1.722   .     A
S92    C95     1.723   .     A
C95    C38     1.474   1_545 S
C96    S101    1.697   .     A
C96    S102    1.710   .     A
C97    C98     1.360   .     A
C97    S99     1.675   .     A
C97    S101    1.667   .     A
C98    S100    1.703   .     A
C98    S102    1.704   .     A
S99    C103    1.713   .     A
S100   C103    1.728   .     A
C104   S109    1.710   .     A
C104   S110    1.737   .     A
C105   S107    1.672   .     A
C105   C106    1.353   1_565 A
C105   S109    1.669   1_565 A
C106   S110    1.704   .     A
C106   C105    1.353   1_545 A
C106   S108    1.706   1_545 A
S107   C111    1.713   .     A
S108   C111    1.726   .     A
S108   C106    1.706   1_565 A
S109   C105    1.669   1_545 A
C112   S117    1.725   .     A
C112   S118    1.710   .     A
C113   C114    1.355   .     A
C113   S115    1.697   .     A
C113   S117    1.699   .     A
C114   S116    1.700   .     A
C114   S118    1.693   .     A
S115   C119    1.718   .     A
S116   C119    1.703   .     A
C120   S125    1.724   .     A
C120   S126    1.720   .     A
C121   C122    1.360   .     A
C121   S123    1.697   .     A
C121   S125    1.683   .     A
C122   S124    1.693   .     A
C122   S126    1.707   .     A
S123   C127    1.709   .     A
S124   C127    1.733   .     A
C128   S133    1.716   1_556 A
C128   S134    1.718   1_556 A
C129   C130    1.358   .     A
C129   S131    1.697   .     A
C129   S133    1.692   .     A
C130   S132    1.704   .     A
C130   S134    1.709   .     A
S131   C135    1.717   .     A
S132   C135    1.722   .     A
S133   C128    1.716   1_554 A
S134   C128    1.718   1_554 A
C136   S141    1.711   .     A
C136   S142    1.723   .     A
C137   C138    1.359   .     A
C137   S139    1.688   .     A
C137   S141    1.690   .     A
C138   S140    1.705   .     A
C138   S142    1.695   .     A
S139   C143    1.722   1_455 A
S140   C143    1.721   1_455 A
C143   S139    1.722   1_655 A
C143   S140    1.721   1_655 A
C144   S149    1.731   .     A
C144   S150    1.716   .     A
C145   C146    1.355   .     A
C145   S147    1.704   .     A
C145   S149    1.705   .     A
C146   S150    1.695   .     A
C146   S148    1.689   1_655 A
S147   C151    1.724   1_655 A
S148   C151    1.724   .     A
S148   C146    1.689   1_455 A
C151   S147    1.724   1_455 A
C152   S157    1.707   .     A
C152   S158    1.732   1_655 A
C153   C154    1.351   .     A
C153   S155    1.685   .     A
C153   S157    1.685   .     A
C154   S156    1.710   .     A
C154   S158    1.700   1_655 A
S155   C159    1.708   .     A
S156   C159    1.735   .     A
S158   C152    1.732   1_455 A
S158   C154    1.700   1_455 A
C160   S166    1.726   .     A
C160   S165    1.708   1_554 A
C161   S163    1.684   .     A
C161   S165    1.683   .     A
C161   C162    1.355   1_556 A
C162   S164    1.699   .     A
C162   S166    1.706   .     A
C162   C161    1.355   1_554 A
S163   C167    1.714   .     A
S164   C167    1.720   1_554 A
S165   C160    1.708   1_556 A
C167   S164    1.720   1_556 A
C168   S173    1.712   .     A
C168   S174    1.706   .     A
C169   C170    1.352   .     A
C169   S171    1.692   .     A
C169   S173    1.699   .     A
C170   S172    1.694   .     A
C170   S174    1.691   .     A
S171   C175    1.725   .     A
S172   C175    1.695   .     A
