data_lcy+N394+E14
_audit_creation_date              2025-01-21
_audit_creation_method            'Materials Studio'
_symmetry_space_group_name_H-M    'P1'
_symmetry_Int_Tables_number       1
_symmetry_cell_setting            triclinic
loop_
_symmetry_equiv_pos_as_xyz
  x,y,z
_cell_length_a                    16.9059
_cell_length_b                    19.0795
_cell_length_c                    20.2151
_cell_angle_alpha                 97.0232
_cell_angle_beta                  105.1190
_cell_angle_gamma                 87.5875
loop_
_atom_site_label
_atom_site_type_symbol
_atom_site_fract_x
_atom_site_fract_y
_atom_site_fract_z
_atom_site_U_iso_or_equiv
_atom_site_adp_type
_atom_site_occupancy
Pr0    Pr    0.03739   0.63505   0.82567   0.00000  Uiso   1.00
Pr1    Pr    0.13530   0.57961   0.95200   0.00000  Uiso   1.00
O2     O     0.01372   0.60748  -0.01608   0.00000  Uiso   1.00
O3     O    -0.05685   0.65410   0.88701   0.00000  Uiso   1.00
O4     O     0.94513   0.64541   0.72019   0.00000  Uiso   1.00
O5     O     0.00584   0.73802   0.77899   0.00000  Uiso   1.00
O6     O     0.13124   0.68347   0.91620   0.00000  Uiso   1.00
O7     O     0.07442   0.75359   0.84074   0.00000  Uiso   1.00
C8     C     0.06866   0.45705   0.88962   0.00000  Uiso   1.00
C9     C    -0.05196   0.63470   0.94694   0.00000  Uiso   1.00
C10    C     0.95325   0.71235   0.72541   0.00000  Uiso   1.00
C11    C     0.20011   0.53329   0.07609   0.00000  Uiso   1.00
C12    C     0.22155   0.58535   0.82502   0.00000  Uiso   1.00
C13    C     0.12861   0.74890   0.89360   0.00000  Uiso   1.00
O14    O     0.15192   0.60813   0.78973   0.00000  Uiso   1.00
O15    O     0.23340   0.56544   0.88691   0.00000  Uiso   1.00
O16    O     0.21221   0.59569   0.06412   0.00000  Uiso   1.00
O17    O     0.16593   0.49202   0.02244   0.00000  Uiso   1.00
O18    O     0.04838   0.52012   0.85692   0.00000  Uiso   1.00
O19    O     0.11920   0.46396   0.94524   0.00000  Uiso   1.00
Pr20   Pr    0.60330   0.90435   0.05480   0.00000  Uiso   1.00
Pr21   Pr    0.57277   0.81176   0.14742   0.00000  Uiso   1.00
O22    O     0.64816   0.73259   0.09311   0.00000  Uiso   1.00
O23    O     0.65958   0.80337   0.01314   0.00000  Uiso   1.00
O24    O     0.69257   0.97261   0.02785   0.00000  Uiso   1.00
O25    O     0.57575   0.95325   0.95324   0.00000  Uiso   1.00
O26    O     0.49545   0.84020   0.04821   0.00000  Uiso   1.00
O27    O     0.48924   0.89851   0.96042   0.00000  Uiso   1.00
C28    C     0.69706   0.87712   0.23320   0.00000  Uiso   1.00
C29    C     0.67573   0.74574   0.04214   0.00000  Uiso   1.00
C30    C     0.64745   0.98044   0.96826   0.00000  Uiso   1.00
C31    C     0.54932   0.72228   0.23164   0.00000  Uiso   1.00
C32    C     0.51478   0.97607   0.16616   0.00000  Uiso   1.00
C33    C     0.45114   0.86062   0.98574   0.00000  Uiso   1.00
O34    O     0.54297   0.98747   0.11502   0.00000  Uiso   1.00
O35    O     0.51244   0.91437   0.18707   0.00000  Uiso   1.00
O36    O     0.49728   0.73052   0.17455   0.00000  Uiso   1.00
O37    O     0.61143   0.76283   0.24780   0.00000  Uiso   1.00
O38    O     0.68114   0.88193   0.16172   0.00000  Uiso   1.00
O39    O     0.66686   0.82582   0.24837   0.00000  Uiso   1.00
Pr40   Pr    0.97155   0.10848   0.61794   0.00000  Uiso   1.00
Pr41   Pr    0.80076   0.10062   0.64248   0.00000  Uiso   1.00
O42    O     0.87690   0.16558   0.74436   0.00000  Uiso   1.00
O43    O     1.00746   0.15725   0.73022   0.00000  Uiso   1.00
O44    O     1.03074   0.19772   0.58229   0.00000  Uiso   1.00
O45    O     0.10151   0.10412   0.59868   0.00000  Uiso   1.00
O46    O     0.90962   0.02891   0.66806   0.00000  Uiso   1.00
O47    O     0.98232  -0.01451   0.60303   0.00000  Uiso   1.00
C48    C     0.79213   0.22609   0.60172   0.00000  Uiso   1.00
C49    C     0.95367   0.18421   0.76181   0.00000  Uiso   1.00
C50    C     0.09804   0.16619   0.58205   0.00000  Uiso   1.00
C51    C     0.74786   0.08452   0.75272   0.00000  Uiso   1.00
C52    C     0.82663   0.04730   0.48848   0.00000  Uiso   1.00
C53    C     0.93243  -0.03013   0.63154   0.00000  Uiso   1.00
O54    O     0.90172   0.06819   0.50751   0.00000  Uiso   1.00
O55    O     0.77835   0.05211   0.52922   0.00000  Uiso   1.00
O56    O     0.80607   0.12744   0.75691   0.00000  Uiso   1.00
O57    O     0.72091   0.04812   0.69456   0.00000  Uiso   1.00
O58    O     0.86046   0.18122   0.60792   0.00000  Uiso   1.00
O59    O     0.73200   0.20194   0.61453   0.00000  Uiso   1.00
Pr60   Pr    0.41966   0.47150   0.50903   0.00000  Uiso   1.00
Pr61   Pr    0.43671   0.35237   0.39988   0.00000  Uiso   1.00
O62    O     0.36907   0.29222   0.45847   0.00000  Uiso   1.00
O63    O     0.35951   0.38076   0.54248   0.00000  Uiso   1.00
O64    O     0.35293   0.55554   0.56518   0.00000  Uiso   1.00
O65    O     0.46822   0.51500   0.62204   0.00000  Uiso   1.00
O66    O     0.51784   0.39551   0.49656   0.00000  Uiso   1.00
O67    O     0.54584   0.46351   0.59231   0.00000  Uiso   1.00
C68    C     0.29999   0.41616   0.33056   0.00000  Uiso   1.00
C69    C     0.34449   0.31730   0.51189   0.00000  Uiso   1.00
C70    C     0.40290   0.55069   0.62414   0.00000  Uiso   1.00
C71    C     0.45892   0.23778   0.31746   0.00000  Uiso   1.00
C72    C     0.50208   0.50874   0.39143   0.00000  Uiso   1.00
C73    C     0.57390   0.41871   0.55568   0.00000  Uiso   1.00
O74    O     0.48362   0.53388   0.44863   0.00000  Uiso   1.00
O75    O     0.49512   0.44279   0.36386   0.00000  Uiso   1.00
O76    O     0.51146   0.25848   0.37394   0.00000  Uiso   1.00
O77    O     0.39657   0.27839   0.30086   0.00000  Uiso   1.00
O78    O     0.34553   0.43723   0.39850   0.00000  Uiso   1.00
O79    O     0.32255   0.35758   0.30961   0.00000  Uiso   1.00
C80    C     0.31484   0.85093   0.89391   0.00000  Uiso   1.00
C81    C     0.36263   0.84384   0.96099   0.00000  Uiso   1.00
C82    C     0.32524   0.81913   0.00821   0.00000  Uiso   1.00
C83    C     0.24459   0.79573  -0.01221   0.00000  Uiso   1.00
C84    C     0.19867   0.79719   0.91967   0.00000  Uiso   1.00
C85    C     0.23293   0.82776   0.87334   0.00000  Uiso   1.00
H86    H     0.34121   0.87157   0.85696   0.00000  Uiso   1.00
H87    H     0.35934   0.81544   0.06104   0.00000  Uiso   1.00
H88    H     0.22045   0.77188   0.02444   0.00000  Uiso   1.00
H89    H     0.19854   0.82878   0.82020   0.00000  Uiso   1.00
C90    C     0.54988   0.14396   0.28346   0.00000  Uiso   1.00
C91    C     0.47041   0.17097   0.27714   0.00000  Uiso   1.00
C92    C     0.40320   0.13197   0.23506   0.00000  Uiso   1.00
C93    C     0.41593   0.06569   0.20067   0.00000  Uiso   1.00
C94    C     0.49589   1.03930   0.20758   0.00000  Uiso   1.00
C95    C     0.56246   0.07946   0.24773   0.00000  Uiso   1.00
H96    H     0.60270   0.17313   0.31510   0.00000  Uiso   1.00
H97    H     0.34121   0.15200   0.22999   0.00000  Uiso   1.00
H98    H     0.36429   1.03573   0.16827   0.00000  Uiso   1.00
H99    H     0.62468   1.06120   0.25035   0.00000  Uiso   1.00
C100   C     0.74537   0.30724   0.51716   0.00000  Uiso   1.00
C101   C     0.78924   0.29757   0.58430   0.00000  Uiso   1.00
C102   C     0.78359   0.34851   0.63855   0.00000  Uiso   1.00
C103   C     0.71476   0.39370   0.63070   0.00000  Uiso   1.00
C104   C     0.65880   0.39234   0.56565   0.00000  Uiso   1.00
C105   C     0.68005   0.35510   0.50759   0.00000  Uiso   1.00
H106   H     0.75120   0.26949   0.47401   0.00000  Uiso   1.00
H107   H     0.82089   0.34332   0.68969   0.00000  Uiso   1.00
H108   H     0.70141   0.42355   0.67550   0.00000  Uiso   1.00
H109   H     0.64088   0.35656   0.45490   0.00000  Uiso   1.00
C110   C     0.64726   1.08525   0.82387   0.00000  Uiso   1.00
C111   C     0.72481   0.06740   0.81316   0.00000  Uiso   1.00
C112   C     0.77790   0.02319   0.85503   0.00000  Uiso   1.00
C113   C     0.75555   0.99863   0.90952   0.00000  Uiso   1.00
C114   C     0.67722   1.01503   0.91948   0.00000  Uiso   1.00
C115   C     0.62378   1.05889   0.87736   0.00000  Uiso   1.00
H116   H     0.60542   0.11818   0.79026   0.00000  Uiso   1.00
H117   H     0.83424   0.00554   0.84172   0.00000  Uiso   1.00
H118   H     0.79644   0.96305   0.94103   0.00000  Uiso   1.00
H119   H     0.56407   1.07163   0.88608   0.00000  Uiso   1.00
C120   C     0.84468   0.99370   0.37233   0.00000  Uiso   1.00
C121   C     0.79367   1.01377   0.41690   0.00000  Uiso   1.00
C122   C     0.71046   0.99680   0.39476   0.00000  Uiso   1.00
C123   C     0.67996   0.95604   0.33229   0.00000  Uiso   1.00
C124   C     0.73097   0.93273   0.28923   0.00000  Uiso   1.00
C125   C     0.81320   0.95317   0.30823   0.00000  Uiso   1.00
H126   H     0.90936   1.00624   0.38819   0.00000  Uiso   1.00
H127   H     0.66928   1.01194   0.42715   0.00000  Uiso   1.00
H128   H     0.61665   0.93971   0.31914   0.00000  Uiso   1.00
H129   H     0.85405   0.93454   0.27646   0.00000  Uiso   1.00
C130   C     0.32798   0.63087   0.69479   0.00000  Uiso   1.00
C131   C     0.37935   0.57200   0.68920   0.00000  Uiso   1.00
C132   C     0.39106   0.52380   0.73871   0.00000  Uiso   1.00
C133   C     0.34496   0.53019   0.78810   0.00000  Uiso   1.00
C134   C     0.28822   0.58591   0.78949   0.00000  Uiso   1.00
C135   C     0.28506   0.63880   0.74564   0.00000  Uiso   1.00
H136   H     0.31821   0.66899   0.65782   0.00000  Uiso   1.00
H137   H     0.42878   0.47680   0.73444   0.00000  Uiso   1.00
H138   H     0.34777   0.48815   0.82012   0.00000  Uiso   1.00
H139   H     0.24386   0.68369   0.74702   0.00000  Uiso   1.00
C140   C     0.17348   0.45453   0.15849   0.00000  Uiso   1.00
C141   C     0.21733   0.51111   0.14677   0.00000  Uiso   1.00
C142   C     0.27328   0.54734   0.20332   0.00000  Uiso   1.00
C143   C     0.29188   0.52262   0.26868   0.00000  Uiso   1.00
C144   C     0.25381   0.46161   0.27853   0.00000  Uiso   1.00
C145   C     0.19207   0.42977   0.22342   0.00000  Uiso   1.00
H146   H     0.12785   0.42708   0.11647   0.00000  Uiso   1.00
H147   H     0.30559   0.59254   0.19604   0.00000  Uiso   1.00
H148   H     0.34022   0.54800   0.30957   0.00000  Uiso   1.00
H149   H     0.16431   0.38129   0.22864   0.00000  Uiso   1.00
C150   C     0.25833   0.29955   0.59168   0.00000  Uiso   1.00
C151   C     0.29088   0.27280   0.53639   0.00000  Uiso   1.00
C152   C     0.26191   0.20773   0.49788   0.00000  Uiso   1.00
C153   C     0.20043   0.17164   0.51362   0.00000  Uiso   1.00
C154   C     0.16645   0.20033   0.56733   0.00000  Uiso   1.00
C155   C     0.19619   0.26385   0.60690   0.00000  Uiso   1.00
H156   H     0.27956   0.34914   0.62253   0.00000  Uiso   1.00
H157   H     0.28466   0.18589   0.45430   0.00000  Uiso   1.00
H158   H     0.17701   0.12308   0.48224   0.00000  Uiso   1.00
H159   H     0.17092   0.28617   0.64912   0.00000  Uiso   1.00
C160   C    -0.04750   0.83944   0.60643   0.00000  Uiso   1.00
C161   C     0.91257  -0.10391   0.63646   0.00000  Uiso   1.00
C162   C     0.86116   0.88139   0.67761   0.00000  Uiso   1.00
C163   C     0.86107   0.81335   0.69695   0.00000  Uiso   1.00
C164   C     0.91159   0.75960   0.67539   0.00000  Uiso   1.00
C165   C    -0.04776   0.77165   0.62613   0.00000  Uiso   1.00
H166   H    -0.01041  -0.15133   0.57231   0.00000  Uiso   1.00
H167   H     0.82651  -0.07674   0.69943   0.00000  Uiso   1.00
H168   H     0.83079   0.80504   0.73640   0.00000  Uiso   1.00
H169   H    -0.00772   0.73074   0.61033   0.00000  Uiso   1.00
C170   C     0.95108   0.37465   0.83176   0.00000  Uiso   1.00
C171   C     0.03454   0.38607   0.86324   0.00000  Uiso   1.00
C172   C     0.08646   0.32731   0.87808   0.00000  Uiso   1.00
C173   C     0.05959   0.25903   0.84947   0.00000  Uiso   1.00
C174   C     0.97765   0.24778   0.81265   0.00000  Uiso   1.00
C175   C     0.92240   0.30546   0.81006   0.00000  Uiso   1.00
H176   H     0.90872   0.41866   0.82383   0.00000  Uiso   1.00
H177   H     0.14964   0.33452   0.90656   0.00000  Uiso   1.00
H178   H     0.10370   0.21610   0.85346   0.00000  Uiso   1.00
H179   H     0.85793   0.29718   0.78618   0.00000  Uiso   1.00
C180   C     0.80664   0.67708   0.06570   0.00000  Uiso   1.00
C181   C     0.73480   0.69690   0.01819   0.00000  Uiso   1.00
C182   C     0.73009   0.68545   0.94771   0.00000  Uiso   1.00
C183   C     0.79807   0.66002   0.92494   0.00000  Uiso   1.00
C184   C     0.87319   0.64712   0.97231   0.00000  Uiso   1.00
C185   C     0.87586   0.65254   0.04290   0.00000  Uiso   1.00
H186   H     0.81197   0.68722   0.12068   0.00000  Uiso   1.00
H187   H     0.67530   0.70028   0.91018   0.00000  Uiso   1.00
H188   H     0.79272   0.65441   0.86993   0.00000  Uiso   1.00
H189   H     0.93252   0.64249   0.08065   0.00000  Uiso   1.00
C190   C     0.50593   0.60262   0.24043   0.00000  Uiso   1.00
C191   C     0.54126   0.66718   0.27338   0.00000  Uiso   1.00
C192   C     0.57205   0.67668   0.34525   0.00000  Uiso   1.00
C193   C     0.56226   0.62377   0.38436   0.00000  Uiso   1.00
C194   C     0.52513   0.55978   0.35151   0.00000  Uiso   1.00
C195   C     0.49885   0.54895   0.27917   0.00000  Uiso   1.00
H196   H     0.48379   0.59398   0.18464   0.00000  Uiso   1.00
H197   H     0.60051   0.72585   0.37144   0.00000  Uiso   1.00
H198   H     0.58249   0.63328   0.44009   0.00000  Uiso   1.00
H199   H     0.46878   0.50031   0.25278   0.00000  Uiso   1.00
loop_
_geom_bond_atom_site_label_1
_geom_bond_atom_site_label_2
_geom_bond_distance
_geom_bond_site_symmetry_2
_ccdc_geom_bond_type
Pr0    O3      2.254   .     S
Pr0    O5      2.267   .     S
Pr0    O6      2.217   .     S
Pr0    O7      2.335   .     S
Pr0    O14     2.258   .     S
Pr0    O18     2.342   .     S
Pr0    O4      2.315   1_455 S
Pr1    O6      2.184   .     S
Pr1    O15     2.360   .     S
Pr1    O18     2.297   .     S
Pr1    O19     2.218   .     S
Pr1    O2      2.332   1_556 S
Pr1    O16     2.291   1_556 S
Pr1    O17     2.283   1_556 S
O2     Pr1     2.332   1_554 S
O2     C9      1.294   1_554 A
O3     C9      1.291   .     A
O4     C10     1.279   .     A
O4     Pr0     2.315   1_655 S
O5     C10     1.268   1_455 A
O6     C13     1.376   .     S
O7     C13     1.223   .     D
C8     O18     1.430   .     S
C8     O19     1.218   .     D
C8     C171    1.476   .     S
C9     O2      1.294   1_556 A
C9     C184    1.485   1_455 S
C10    C164    1.459   .     S
C10    O5      1.268   1_655 A
C11    O16     1.279   .     A
C11    O17     1.278   .     A
C11    C141    1.492   .     S
C12    O14     1.295   .     A
C12    O15     1.315   .     A
C12    C134    1.487   .     S
C13    C84     1.476   .     S
O16    Pr1     2.291   1_554 S
O17    Pr1     2.283   1_554 S
Pr20   O23     2.279   .     S
Pr20   O24     2.245   .     S
Pr20   O26     2.205   .     S
Pr20   O34     2.253   .     S
Pr20   O38     2.298   .     S
Pr20   O25     2.288   1_554 S
Pr20   O27     2.328   1_554 S
Pr21   O22     2.296   .     S
Pr21   O26     2.206   .     S
Pr21   O35     2.322   .     S
Pr21   O36     2.252   .     S
Pr21   O37     2.266   .     S
Pr21   O38     2.251   .     S
Pr21   O39     2.230   .     S
O22    C29     1.290   .     A
O23    C29     1.295   .     A
O24    C30     1.269   1_554 A
O25    C30     1.286   .     A
O25    Pr20    2.288   1_556 S
O26    C33     1.382   1_554 S
O27    C33     1.225   .     D
O27    Pr20    2.328   1_556 S
C28    O38     1.413   .     S
C28    O39     1.229   .     D
C28    C124    1.468   .     S
C29    C181    1.471   .     S
C30    C114    1.452   .     S
C30    O24     1.269   1_556 A
C31    O36     1.278   .     A
C31    O37     1.279   .     A
C31    C191    1.457   .     S
C32    O34     1.290   .     A
C32    O35     1.304   .     A
C32    C94     1.456   .     S
C33    C81     1.484   .     S
C33    O26     1.382   1_556 S
Pr40   O43     2.280   .     S
Pr40   O44     2.289   .     S
Pr40   O46     2.343   .     S
Pr40   O47     2.334   .     S
Pr40   O54     2.291   .     S
Pr40   O58     2.268   .     S
Pr40   O45     2.326   1_655 S
Pr41   O42     2.358   .     S
Pr41   O46     2.234   .     S
Pr41   O55     2.302   .     S
Pr41   O56     2.286   .     S
Pr41   O57     2.247   .     S
Pr41   O58     2.152   .     S
Pr41   O59     2.268   .     S
O42    C49     1.306   .     A
O43    C49     1.297   .     A
O44    C50     1.265   1_655 A
O45    C50     1.265   .     A
O45    Pr40    2.326   1_455 S
O46    C53     1.368   .     S
O47    C53     1.204   .     D
C48    O58     1.397   .     S
C48    O59     1.232   .     D
C48    C101    1.445   .     S
C49    C174    1.487   .     S
C50    C154    1.463   .     S
C50    O44     1.265   1_455 A
C51    O56     1.286   .     A
C51    O57     1.273   .     A
C51    C111    1.452   .     S
C52    O54     1.292   .     A
C52    O55     1.296   .     A
C52    C121    1.482   1_545 S
C53    C161    1.482   .     S
Pr60   O63     2.298   .     S
Pr60   O64     2.281   .     S
Pr60   O65     2.280   .     S
Pr60   O66     2.201   .     S
Pr60   O67     2.360   .     S
Pr60   O74     2.287   .     S
Pr60   O78     2.289   .     S
Pr61   O62     2.275   .     S
Pr61   O66     2.164   .     S
Pr61   O75     2.304   .     S
Pr61   O76     2.238   .     S
Pr61   O77     2.267   .     S
Pr61   O78     2.186   .     S
Pr61   O79     2.293   .     S
O62    C69     1.288   .     A
O63    C69     1.294   .     A
O64    C70     1.280   .     A
O65    C70     1.280   .     A
O66    C73     1.356   .     S
O67    C73     1.224   .     D
C68    O78     1.407   .     S
C68    O79     1.227   .     D
C68    C144    1.485   .     S
C69    C151    1.480   .     S
C70    C131    1.477   .     S
C71    O76     1.280   .     A
C71    O77     1.278   .     A
C71    C91     1.461   .     S
C72    O74     1.306   .     A
C72    O75     1.309   .     A
C72    C194    1.463   .     S
C73    C104    1.472   .     S
C80    C81     1.405   .     A
C80    C85     1.411   .     A
C80    H86     1.083   .     S
C81    C82     1.408   1_556 A
C82    C83     1.393   .     A
C82    H87     1.082   .     S
C82    C81     1.408   1_554 A
C83    H88     1.085   .     S
C83    C84     1.396   1_554 A
C84    C85     1.413   .     A
C84    C83     1.396   1_556 A
C85    H89     1.082   .     S
C90    C91     1.398   .     A
C90    C95     1.386   .     A
C90    H96     1.083   .     S
C91    C92     1.407   .     A
C92    C93     1.403   .     A
C92    H97     1.084   .     S
C93    C94     1.400   1_545 A
C93    H98     1.082   1_545 S
C94    C93     1.400   1_565 A
C94    C95     1.399   1_565 A
C95    C94     1.399   1_545 A
C95    H99     1.084   1_545 S
H98    C93     1.082   1_565 S
H99    C95     1.084   1_565 S
C100   C101    1.397   .     A
C100   C105    1.392   .     A
C100   H106    1.084   .     S
C101   C102    1.394   .     A
C102   C103    1.405   .     A
C102   H107    1.075   .     S
C103   C104    1.403   .     A
C103   H108    1.079   .     S
C104   C105    1.416   .     A
C105   H109    1.101   .     S
C110   C115    1.398   .     A
C110   C111    1.405   1_565 A
C110   H116    1.083   1_565 S
C111   C112    1.396   .     A
C111   C110    1.405   1_545 A
C112   H117    1.085   .     S
C112   C113    1.391   1_545 A
C113   C114    1.407   .     A
C113   H118    1.087   .     S
C113   C112    1.391   1_565 A
C114   C115    1.397   .     A
C115   H119    1.082   .     S
H116   C110    1.083   1_545 S
C120   C121    1.413   .     A
C120   C125    1.411   .     A
C120   H126    1.084   .     S
C121   C122    1.399   .     A
C121   C52     1.482   1_565 S
C122   C123    1.385   .     A
C122   H127    1.082   .     S
C123   C124    1.401   .     A
C123   H128    1.083   .     S
C124   C125    1.401   .     A
C125   H129    1.082   .     S
C130   C131    1.402   .     A
C130   C135    1.396   .     A
C130   H136    1.083   .     S
C131   C132    1.412   .     A
C132   C133    1.410   .     A
C132   H137    1.086   .     S
C133   C134    1.404   .     A
C133   H138    1.083   .     S
C134   C135    1.413   .     A
C135   H139    1.083   .     S
C140   C141    1.412   .     A
C140   C145    1.403   .     A
C140   H146    1.084   .     S
C141   C142    1.406   .     A
C142   C143    1.411   .     A
C142   H147    1.085   .     S
C143   C144    1.412   .     A
C143   H148    1.081   .     S
C144   C145    1.407   .     A
C145   H149    1.083   .     S
C150   C151    1.404   .     A
C150   C155    1.394   .     A
C150   H156    1.086   .     S
C151   C152    1.415   .     A
C152   C153    1.394   .     A
C152   H157    1.082   .     S
C153   C154    1.401   .     A
C153   H158    1.083   .     S
C154   C155    1.402   .     A
C155   H159    1.085   .     S
C160   C165    1.400   .     A
C160   C161    1.409   1_465 A
C160   H166    1.079   1_565 S
C161   C160    1.409   1_645 A
C161   C162    1.407   1_545 A
C162   C163    1.401   .     A
C162   C161    1.407   1_565 A
C162   H167    1.089   1_565 S
C163   C164    1.408   .     A
C163   H168    1.083   .     S
C164   C165    1.394   1_655 A
C165   H169    1.085   .     S
C165   C164    1.394   1_455 A
H166   C160    1.079   1_545 S
H167   C162    1.089   1_545 S
C170   C175    1.404   .     A
C170   H176    1.080   .     S
C170   C171    1.403   1_655 A
C171   C172    1.407   .     A
C171   C170    1.403   1_455 A
C172   C173    1.402   .     A
C172   H177    1.079   .     S
C173   H178    1.080   .     S
C173   C174    1.403   1_455 A
C174   C175    1.410   .     A
C174   C173    1.403   1_655 A
C175   H179    1.080   .     S
C180   C181    1.408   .     A
C180   C185    1.408   .     A
C180   H186    1.085   .     S
C181   C182    1.397   1_554 A
C182   C183    1.394   .     A
C182   H187    1.085   .     S
C182   C181    1.397   1_556 A
C183   C184    1.410   .     A
C183   H188    1.084   .     S
C184   C185    1.407   1_556 A
C184   C9      1.485   1_655 S
C185   H189    1.084   .     S
C185   C184    1.407   1_554 A
C190   C191    1.404   .     A
C190   C195    1.390   .     A
C190   H196    1.086   .     S
C191   C192    1.401   .     A
C192   C193    1.396   .     A
C192   H197    1.084   .     S
C193   C194    1.405   .     A
C193   H198    1.083   .     S
C194   C195    1.405   .     A
C195   H199    1.087   .     S
