data_lcy+N205+E70
_audit_creation_date              2025-01-21
_audit_creation_method            'Materials Studio'
_symmetry_space_group_name_H-M    'P1'
_symmetry_Int_Tables_number       1
_symmetry_cell_setting            triclinic
loop_
_symmetry_equiv_pos_as_xyz
  x,y,z
_cell_length_a                    18.0490
_cell_length_b                    19.1861
_cell_length_c                    18.5245
_cell_angle_alpha                 121.5186
_cell_angle_beta                  93.6069
_cell_angle_gamma                 90.5725
loop_
_atom_site_label
_atom_site_type_symbol
_atom_site_fract_x
_atom_site_fract_y
_atom_site_fract_z
_atom_site_U_iso_or_equiv
_atom_site_adp_type
_atom_site_occupancy
Y0     Y     0.19624   0.51187   0.82637   0.00000  Uiso   1.00
Y1     Y     0.06272   0.66115   0.83026   0.00000  Uiso   1.00
C2     C     0.96622   0.71099   0.94973   0.00000  Uiso   1.00
C3     C     0.02824   0.49988   0.81721   0.00000  Uiso   1.00
C4     C     0.24793   0.41044   0.87446   0.00000  Uiso   1.00
C5     C     0.20709   0.47016   0.66378   0.00000  Uiso   1.00
C6     C     0.24008   0.70219   0.91182   0.00000  Uiso   1.00
C7     C     1.04415   0.73886   0.74422   0.00000  Uiso   1.00
O8     O     0.03419   0.70277   0.96393   0.00000  Uiso   1.00
O9     O     0.94980   0.69569   0.87569   0.00000  Uiso   1.00
O10    O     0.08305   0.52273   0.87194   0.00000  Uiso   1.00
O11    O     0.02214   0.52936   0.76962   0.00000  Uiso   1.00
O12    O     0.26889   0.48463   0.91034   0.00000  Uiso   1.00
O13    O     0.20456   0.38638   0.80909   0.00000  Uiso   1.00
O14    O     0.14720   0.46741   0.69351   0.00000  Uiso   1.00
O15    O     0.26201   0.49462   0.71821   0.00000  Uiso   1.00
O16    O     0.17908   0.71564   0.88346   0.00000  Uiso   1.00
O17    O     0.25183   0.63623   0.91024   0.00000  Uiso   1.00
O18    O     1.06994   0.66835   0.71181   0.00000  Uiso   1.00
O19    O     0.02618   0.76663   0.81862   0.00000  Uiso   1.00
Y20    Y     0.52835   0.89246   0.23366   0.00000  Uiso   1.00
Y21    Y     0.63882   0.95284   0.11223   0.00000  Uiso   1.00
C22    C     0.74391   0.84397   0.07802   0.00000  Uiso   1.00
C23    C     0.68401   0.98346   0.28803   0.00000  Uiso   1.00
C24    C     0.49924   0.81464   0.31498   0.00000  Uiso   1.00
C25    C     0.45666   1.02257   0.25518   0.00000  Uiso   1.00
C26    C     0.48320   0.85009   0.05435   0.00000  Uiso   1.00
C27    C     0.65638   1.04162   1.03999   0.00000  Uiso   1.00
O28    O     0.67692   0.82921   0.08469   0.00000  Uiso   1.00
O29    O     0.75519   0.91259   0.08597   0.00000  Uiso   1.00
O30    O     0.65141   0.91526   0.26552   0.00000  Uiso   1.00
O31    O     0.66467   1.02341   0.25330   0.00000  Uiso   1.00
O32    O     0.49062   0.78147   0.23555   0.00000  Uiso   1.00
O33    O     0.51709   0.89016   0.35332   0.00000  Uiso   1.00
O34    O     0.52194   1.02747   0.28564   0.00000  Uiso   1.00
O35    O     0.42501   0.95276   0.22340   0.00000  Uiso   1.00
O36    O     0.51944   0.91295   0.06626   0.00000  Uiso   1.00
O37    O     0.50550   0.81323   0.09164   0.00000  Uiso   1.00
O38    O     0.64760   1.07306   0.11802   0.00000  Uiso   1.00
O39    O     0.65623   0.96473   0.99990   0.00000  Uiso   1.00
Y40    Y     0.94437   0.20499   0.57703   0.00000  Uiso   1.00
Y41    Y     0.85259   0.06767   0.71902   0.00000  Uiso   1.00
C42    C     0.95257   0.95774   0.70630   0.00000  Uiso   1.00
C43    C     0.84172   0.05760   0.54796   0.00000  Uiso   1.00
C44    C     0.07167   0.18960   0.50465   0.00000  Uiso   1.00
C45    C     0.83351   0.30126   0.58675   0.00000  Uiso   1.00
C46    C     0.93056   0.23277   0.75571   0.00000  Uiso   1.00
C47    C     0.75579   1.09803   0.83573   0.00000  Uiso   1.00
O48    O     0.96580   0.01110   0.68790   0.00000  Uiso   1.00
O49    O     0.88985   0.96394   0.73409   0.00000  Uiso   1.00
O50    O     0.90121   0.09977   0.58625   0.00000  Uiso   1.00
O51    O     0.80352   0.03355   0.58724   0.00000  Uiso   1.00
O52    O     0.06367   0.24430   0.58147   0.00000  Uiso   1.00
O53    O     1.01301   0.14605   0.46494   0.00000  Uiso   1.00
O54    O     0.83667   0.22860   0.52507   0.00000  Uiso   1.00
O55    O     0.89054   0.32547   0.63852   0.00000  Uiso   1.00
O56    O     0.89559   0.20147   0.79023   0.00000  Uiso   1.00
O57    O     0.95680   0.18519   0.68543   0.00000  Uiso   1.00
O58    O     0.75230   1.03248   0.76348   0.00000  Uiso   1.00
O59    O     0.80704   0.14809   0.84555   0.00000  Uiso   1.00
Y60    Y     0.43910   0.34433   0.47274   0.00000  Uiso   1.00
Y61    Y     0.39097   0.42166   0.25599   0.00000  Uiso   1.00
C62    C     0.46273   0.56870   0.32377   0.00000  Uiso   1.00
C63    C     0.32371   0.42969   0.41256   0.00000  Uiso   1.00
C64    C     0.57376   0.36425   0.55220   0.00000  Uiso   1.00
C65    C     0.32698   0.24864   0.46679   0.00000  Uiso   1.00
C66    C     0.45319   0.28869   0.27988   0.00000  Uiso   1.00
C67    C     0.32650   0.36448   0.10000   0.00000  Uiso   1.00
O68    O     0.44963   0.53684   0.36658   0.00000  Uiso   1.00
O69    O     0.44622   0.52129   0.24568   0.00000  Uiso   1.00
O70    O     0.39222   0.43140   0.43554   0.00000  Uiso   1.00
O71    O     0.30590   0.42921   0.34431   0.00000  Uiso   1.00
O72    O     0.55273   0.30134   0.48094   0.00000  Uiso   1.00
O73    O     0.52333   0.41521   0.58463   0.00000  Uiso   1.00
O74    O     0.33880   0.32235   0.52669   0.00000  Uiso   1.00
O75    O     0.37695   0.22306   0.41509   0.00000  Uiso   1.00
O76    O     0.45110   0.30910   0.22521   0.00000  Uiso   1.00
O77    O     0.46491   0.34490   0.35715   0.00000  Uiso   1.00
O78    O     0.30018   0.42150   0.16631   0.00000  Uiso   1.00
O79    O     0.38365   0.33573   0.11506   0.00000  Uiso   1.00
N80    N     0.36458   0.76474  -0.01364   0.00000  Uiso   1.00
H81    H     0.40974   0.93112   0.98468   0.00000  Uiso   1.00
C82    C     0.41078   0.82809   0.00366   0.00000  Uiso   1.00
C83    C     0.38156   0.87665   0.97543   0.00000  Uiso   1.00
C84    C     0.30035   0.76627   0.94539   0.00000  Uiso   1.00
S85    S     0.29462   0.84486   0.92686   0.00000  Uiso   1.00
N86    N     0.46148   0.16154   0.28200   0.00000  Uiso   1.00
H87    H     0.33618   0.18999   0.16339   0.00000  Uiso   1.00
C88    C     0.42862   0.20517   0.25277   0.00000  Uiso   1.00
C89    C     0.36886   0.16432   0.19413   0.00000  Uiso   1.00
C90    C     0.42539   0.08754   0.24630   0.00000  Uiso   1.00
S91    S     0.35170   0.06813   0.17388   0.00000  Uiso   1.00
N92    N     0.70238   0.32216   0.55640   0.00000  Uiso   1.00
H93    H     0.81337   0.46372   0.71551   0.00000  Uiso   1.00
C94    C     0.76828   0.35161   0.60172   0.00000  Uiso   1.00
C95    C     0.76628   0.43024   0.67053   0.00000  Uiso   1.00
C96    C     0.65036   0.37825   0.59103   0.00000  Uiso   1.00
S97    S     0.68066   0.46942   0.68003   0.00000  Uiso   1.00
N98    N     0.69708   1.05592   0.92391   0.00000  Uiso   1.00
H99    H     0.70286   0.24491   0.96527   0.00000  Uiso   1.00
C100   C     0.71047   1.11319   0.90517   0.00000  Uiso   1.00
C101   C     0.69281   0.19051   0.96764   0.00000  Uiso   1.00
C102   C     0.66884   1.08941   1.00031   0.00000  Uiso   1.00
S103   S     0.65762   0.19278   1.05225   0.00000  Uiso   1.00
N104   N     0.75018   1.02444   0.42615   0.00000  Uiso   1.00
H105   H     0.93132   0.02995   0.42041   0.00000  Uiso   1.00
C106   C     0.82013   1.03781   0.46098   0.00000  Uiso   1.00
C107   C     0.87253   0.02963   0.40632   0.00000  Uiso   1.00
C108   C     0.75045   1.01042   0.34653   0.00000  Uiso   1.00
S109   S     0.83544   0.00984   0.31055   0.00000  Uiso   1.00
N110   N     0.27468   0.45618   0.54557   0.00000  Uiso   1.00
H111   H     0.17624   0.36549   0.36058   0.00000  Uiso   1.00
C112   C     0.26502   0.42515   0.46155   0.00000  Uiso   1.00
C113   C     0.19433   0.39250   0.42714   0.00000  Uiso   1.00
C114   C     0.21174   0.44557   0.57467   0.00000  Uiso   1.00
S115   S     0.13765   0.39906   0.50051   0.00000  Uiso   1.00
N116   N     0.28082   0.39559  -0.00550   0.00000  Uiso   1.00
H117   H     0.26701   0.23980  -0.20340   0.00000  Uiso   1.00
C118   C     0.26741   0.36082  -0.08952   0.00000  Uiso   1.00
C119   C     0.27491   0.27760  -0.13497   0.00000  Uiso   1.00
C120   C     0.29889   0.33937   0.01375   0.00000  Uiso   1.00
S121   S     0.30260   0.24131  -0.07119   0.00000  Uiso   1.00
N122   N     0.20190   0.22815   0.50210   0.00000  Uiso   1.00
H123   H     0.27979   0.09399   0.32878   0.00000  Uiso   1.00
C124   C     0.25854   0.19964   0.45191   0.00000  Uiso   1.00
C125   C     0.24184   0.12514   0.37783   0.00000  Uiso   1.00
C126   C     0.14254   0.17474   0.46563   0.00000  Uiso   1.00
S127   S     0.15345   0.08850   0.36848   0.00000  Uiso   1.00
N128   N     0.99273   0.85008   0.73194   0.00000  Uiso   1.00
H129   H     0.06791   0.88489   0.59567   0.00000  Uiso   1.00
C130   C     1.00153   0.89167   0.69301   0.00000  Uiso   1.00
C131   C     0.05440   0.86061   0.63475   0.00000  Uiso   1.00
C132   C     1.03834   0.78748   0.70395   0.00000  Uiso   1.00
S133   S     1.09437   0.77688   0.62791   0.00000  Uiso   1.00
N134   N     0.98795   0.36122   0.77985   0.00000  Uiso   1.00
H135   H    -0.11324   0.52244   0.87851   0.00000  Uiso   1.00
C136   C    -0.02683   0.44005   0.81121   0.00000  Uiso   1.00
C137   C     0.90662   0.46105   0.84776   0.00000  Uiso   1.00
C138   C     0.93189   0.32157   0.79089   0.00000  Uiso   1.00
S139   S     0.85964   0.38046   0.84255   0.00000  Uiso   1.00
N140   N     0.84970   0.77236   1.00268   0.00000  Uiso   1.00
H141   H     0.80381   0.78125   0.17618   0.00000  Uiso   1.00
C142   C     0.80434   0.78935   0.06333   0.00000  Uiso   1.00
C143   C     0.83104   0.76792   0.12018   0.00000  Uiso   1.00
C144   C     0.91045   0.73678   1.01140   0.00000  Uiso   1.00
S145   S     0.91554   0.72440   0.09679   0.00000  Uiso   1.00
N146   N     0.48131   0.68671   0.31065   0.00000  Uiso   1.00
H147   H     0.52048   0.86269   0.48904   0.00000  Uiso   1.00
C148   C     0.49427   0.76774   0.35649   0.00000  Uiso   1.00
C149   C     0.50822   0.79859   0.44212   0.00000  Uiso   1.00
C150   C     0.48456   0.65502   0.36026   0.00000  Uiso   1.00
S151   S     0.50336   0.72422   0.46672   0.00000  Uiso   1.00
loop_
_geom_bond_atom_site_label_1
_geom_bond_atom_site_label_2
_geom_bond_distance
_geom_bond_site_symmetry_2
_ccdc_geom_bond_type
Y0     O10     2.230   .     S
Y0     O12     2.240   .     S
Y0     O13     2.265   .     S
Y0     O14     2.255   .     S
Y0     O15     2.269   .     S
Y0     O17     2.235   .     S
Y1     O8      2.266   .     S
Y1     O11     2.254   .     S
Y1     O16     2.257   .     S
Y1     O19     2.245   .     S
Y1     O9      2.227   1_455 S
Y1     O18     2.281   1_455 S
C2     O9      1.257   .     A
C2     C144    1.458   .     S
C2     O8      1.267   1_655 A
C3     O10     1.265   .     A
C3     O11     1.273   .     A
C3     C136    1.466   .     S
C4     O12     1.257   .     A
C4     O13     1.258   .     A
C4     C118    1.455   1_556 S
C5     O14     1.256   .     A
C5     O15     1.261   .     A
C5     C114    1.469   .     S
C6     O16     1.276   .     A
C6     O17     1.271   .     A
C6     C84     1.473   .     S
C7     O18     1.267   .     A
C7     C132    1.469   .     S
C7     O19     1.257   1_655 A
O8     C2      1.267   1_455 A
O9     Y1      2.227   1_655 S
O18    Y1      2.281   1_655 S
O19    C7      1.257   1_455 A
Y20    O30     2.240   .     S
Y20    O32     2.248   .     S
Y20    O33     2.262   .     S
Y20    O34     2.250   .     S
Y20    O35     2.254   .     S
Y20    O37     2.252   .     S
Y21    O28     2.274   .     S
Y21    O29     2.239   .     S
Y21    O31     2.239   .     S
Y21    O36     2.238   .     S
Y21    O38     2.256   .     S
Y21    O39     2.249   1_554 S
C22    O28     1.267   .     A
C22    O29     1.259   .     A
C22    C142    1.457   .     S
C23    O30     1.271   .     A
C23    O31     1.271   .     A
C23    C108    1.455   .     S
C24    O32     1.259   .     A
C24    O33     1.262   .     A
C24    C148    1.463   .     S
C25    O34     1.255   .     A
C25    O35     1.259   .     A
C25    C90     1.455   1_565 S
C26    O36     1.272   .     A
C26    O37     1.273   .     A
C26    C82     1.479   .     S
C27    O39     1.258   .     A
C27    C102    1.467   .     S
C27    O38     1.264   1_556 A
O38    C27     1.264   1_554 A
O39    Y21     2.249   1_556 S
Y40    O50     2.249   .     S
Y40    O53     2.241   .     S
Y40    O54     2.269   .     S
Y40    O55     2.240   .     S
Y40    O57     2.229   .     S
Y40    O52     2.257   1_655 S
Y41    O48     2.286   .     S
Y41    O51     2.284   .     S
Y41    O56     2.285   .     S
Y41    O59     2.244   .     S
Y41    O49     2.253   1_545 S
Y41    O58     2.271   1_545 S
C42    O49     1.254   .     A
C42    C130    1.474   .     S
C42    O48     1.261   1_565 A
C43    O50     1.264   .     A
C43    O51     1.275   .     A
C43    C106    1.473   1_545 S
C44    O52     1.271   .     A
C44    C126    1.466   .     S
C44    O53     1.266   1_455 A
C45    O54     1.264   .     A
C45    O55     1.263   .     A
C45    C94     1.477   .     S
C46    O56     1.270   .     A
C46    O57     1.263   .     A
C46    C138    1.471   .     S
C47    O58     1.267   .     A
C47    C100    1.468   .     S
C47    O59     1.261   1_565 A
O48    C42     1.261   1_545 A
O49    Y41     2.253   1_565 S
O52    Y40     2.257   1_455 S
O53    C44     1.266   1_655 A
O58    Y41     2.271   1_565 S
O59    C47     1.261   1_545 A
Y60    O70     2.267   .     S
Y60    O72     2.244   .     S
Y60    O73     2.252   .     S
Y60    O74     2.260   .     S
Y60    O75     2.239   .     S
Y60    O77     2.225   .     S
Y61    O68     2.269   .     S
Y61    O69     2.248   .     S
Y61    O71     2.265   .     S
Y61    O76     2.237   .     S
Y61    O78     2.258   .     S
Y61    O79     2.237   .     S
C62    O68     1.259   .     A
C62    O69     1.254   .     A
C62    C150    1.462   .     S
C63    O70     1.277   .     A
C63    O71     1.280   .     A
C63    C112    1.468   .     S
C64    O72     1.267   .     A
C64    O73     1.272   .     A
C64    C96     1.472   .     S
C65    O74     1.265   .     A
C65    O75     1.264   .     A
C65    C124    1.466   .     S
C66    O76     1.261   .     A
C66    O77     1.265   .     A
C66    C88     1.460   .     S
C67    O78     1.269   .     A
C67    O79     1.258   .     A
C67    C120    1.457   .     S
N80    C82     1.347   .     A
N80    C84     1.354   1_554 A
H81    C83     1.082   .     S
C82    C83     1.380   1_554 A
C83    S85     1.695   .     A
C83    C82     1.380   1_556 A
C84    S85     1.715   .     A
C84    N80     1.354   1_556 A
N86    C88     1.338   .     A
N86    C90     1.350   .     A
H87    C89     1.082   .     S
C88    C89     1.380   .     A
C89    S91     1.701   .     A
C90    S91     1.718   .     A
C90    C25     1.455   1_545 S
N92    C94     1.343   .     A
N92    C96     1.351   .     A
H93    C95     1.082   .     S
C94    C95     1.378   .     A
C95    S97     1.704   .     A
C96    S97     1.712   .     A
N98    C100    1.338   .     A
N98    C102    1.350   .     A
H99    C101    1.081   .     S
C100   C101    1.379   1_565 A
C101   S103    1.708   .     A
C101   C100    1.379   1_545 A
C102   S103    1.714   1_565 A
S103   C102    1.714   1_545 A
N104   C106    1.339   .     A
N104   C108    1.354   .     A
H105   C107    1.076   .     S
C106   C107    1.379   1_565 A
C106   C43     1.473   1_565 S
C107   S109    1.697   .     A
C107   C106    1.379   1_545 A
C108   S109    1.708   1_565 A
S109   C108    1.708   1_545 A
N110   C112    1.342   .     A
N110   C114    1.345   .     A
H111   C113    1.083   .     S
C112   C113    1.375   .     A
C113   S115    1.705   .     A
C114   S115    1.713   .     A
N116   C118    1.338   .     A
N116   C120    1.338   .     A
H117   C119    1.080   .     S
C118   C119    1.375   .     A
C118   C4      1.455   1_554 S
C119   S121    1.710   .     A
C120   S121    1.715   .     A
N122   C124    1.345   .     A
N122   C126    1.348   .     A
H123   C125    1.082   .     S
C124   C125    1.380   .     A
C125   S127    1.699   .     A
C126   S127    1.718   .     A
N128   C130    1.340   .     A
N128   C132    1.346   .     A
H129   C131    1.083   .     S
C130   C131    1.378   1_655 A
C131   C130    1.378   1_455 A
C131   S133    1.714   1_455 A
C132   S133    1.712   .     A
S133   C131    1.714   1_655 A
N134   C138    1.348   .     A
N134   C136    1.343   1_655 A
H135   C137    1.083   1_455 S
C136   N134    1.343   1_455 A
C136   C137    1.375   1_455 A
C137   S139    1.711   .     A
C137   H135    1.083   1_655 S
C137   C136    1.375   1_655 A
C138   S139    1.717   .     A
N140   C144    1.343   .     A
N140   C142    1.333   1_556 A
H141   C143    1.083   .     S
C142   C143    1.380   .     A
C142   N140    1.333   1_554 A
C143   S145    1.715   .     A
C144   S145    1.715   1_556 A
S145   C144    1.715   1_554 A
N146   C148    1.334   .     A
N146   C150    1.340   .     A
H147   C149    1.081   .     S
C148   C149    1.377   .     A
C149   S151    1.713   .     A
C150   S151    1.714   .     A
