data_lcy+N155+E220
_audit_creation_date              2025-01-21
_audit_creation_method            'Materials Studio'
_symmetry_space_group_name_H-M    'P1'
_symmetry_Int_Tables_number       1
_symmetry_cell_setting            triclinic
loop_
_symmetry_equiv_pos_as_xyz
  x,y,z
_cell_length_a                    18.4994
_cell_length_b                    16.9638
_cell_length_c                    20.3507
_cell_angle_alpha                 92.1977
_cell_angle_beta                  99.8259
_cell_angle_gamma                 96.9545
loop_
_atom_site_label
_atom_site_type_symbol
_atom_site_fract_x
_atom_site_fract_y
_atom_site_fract_z
_atom_site_U_iso_or_equiv
_atom_site_adp_type
_atom_site_occupancy
C0     C     0.29725   0.53024   0.77600   0.00000  Uiso   1.00
Ho1    Ho    0.20345   0.57248   0.84594   0.00000  Uiso   1.00
C2     C     0.98782   0.67500  -0.03023   0.00000  Uiso   1.00
Ho3    Ho    0.09359   0.62953   0.91435   0.00000  Uiso   1.00
O4     O     0.23511   0.48770   0.77703   0.00000  Uiso   1.00
O5     O     0.31183   0.59133   0.81714   0.00000  Uiso   1.00
O6     O     0.15944   0.46141   0.78965   0.00000  Uiso   1.00
O7     O     0.09255   0.52182   0.85137   0.00000  Uiso   1.00
C8     C     0.10037   0.45609   0.81022   0.00000  Uiso   1.00
C9     C     0.21176   0.73609   0.95315   0.00000  Uiso   1.00
O10    O     0.22885   0.50956   0.94004   0.00000  Uiso   1.00
O11    O     0.13951   0.55648   0.99156   0.00000  Uiso   1.00
O12    O     0.05309   0.71391  -0.02043   0.00000  Uiso   1.00
O13    O     0.98077   0.61207   0.93216   0.00000  Uiso   1.00
O14    O     0.15312   0.74164   0.97261   0.00000  Uiso   1.00
O15    O     0.20559   0.67085   0.91090   0.00000  Uiso   1.00
O16    O     0.06731   0.69225   0.82396   0.00000  Uiso   1.00
O17    O     0.15269   0.64676   0.76719   0.00000  Uiso   1.00
C18    C     0.10008   0.68981   0.77285   0.00000  Uiso   1.00
C19    C     0.19261   0.51326   0.98990   0.00000  Uiso   1.00
C20    C     0.60014   0.72442   0.22291   0.00000  Uiso   1.00
Ho21   Ho    0.63337   0.84345   0.15219   0.00000  Uiso   1.00
C22    C     0.69093   0.03138   0.94378   0.00000  Uiso   1.00
Ho23   Ho    0.67092   0.95863   0.05069   0.00000  Uiso   1.00
O24    O     0.55931   0.73988   0.16880   0.00000  Uiso   1.00
O25    O     0.65453   0.77895   0.24377   0.00000  Uiso   1.00
O26    O     0.52753   0.77264   0.10880   0.00000  Uiso   1.00
O27    O     0.57763   0.87036   0.05858   0.00000  Uiso   1.00
C28    C     0.51572   0.81495   0.06143   0.00000  Uiso   1.00
C29    C     0.72137   1.00436   0.18362   0.00000  Uiso   1.00
O30    O     0.56723   0.93973   0.17714   0.00000  Uiso   1.00
O31    O     0.59085   1.02301   0.09279   0.00000  Uiso   1.00
O32    O     0.73711   0.04466  -0.00084   0.00000  Uiso   1.00
O33    O     0.63165   0.98763   0.94916   0.00000  Uiso   1.00
O34    O     0.69954   1.04726   0.14068   0.00000  Uiso   1.00
O35    O     0.72534   0.93317   0.15320   0.00000  Uiso   1.00
O36    O     0.73843   0.86607   0.02957   0.00000  Uiso   1.00
O37    O     0.70403   0.77316   0.10165   0.00000  Uiso   1.00
C38    C     0.74397   0.79979   0.05844   0.00000  Uiso   1.00
C39    C     0.55811   1.00356   0.14320   0.00000  Uiso   1.00
C40    C     0.72344   0.28619   0.55087   0.00000  Uiso   1.00
Ho41   Ho    0.81169   0.18053   0.57028   0.00000  Uiso   1.00
C42    C    -0.02747   0.93743   0.63804   0.00000  Uiso   1.00
Ho43   Ho    0.89686   0.05268   0.60347   0.00000  Uiso   1.00
O44    O     0.71471   0.22141   0.51411   0.00000  Uiso   1.00
O45    O     0.78370   0.29847   0.59343   0.00000  Uiso   1.00
O46    O     0.72486   0.14301   0.48466   0.00000  Uiso   1.00
O47    O     0.80856   0.06519   0.51897   0.00000  Uiso   1.00
C48    C     0.75045   0.08268   0.46918   0.00000  Uiso   1.00
C49    C     0.94967   0.16370   0.69810   0.00000  Uiso   1.00
O50    O     0.89512   0.21019   0.50552   0.00000  Uiso   1.00
O51    O     0.96518   0.10874   0.53677   0.00000  Uiso   1.00
O52    O    -0.01275   0.00684   0.66820   0.00000  Uiso   1.00
O53    O     0.91747   0.93041   0.59010   0.00000  Uiso   1.00
O54    O     0.96910   0.09698   0.70061   0.00000  Uiso   1.00
O55    O     0.91136   0.17468   0.63630   0.00000  Uiso   1.00
O56    O     0.81550   0.02593   0.66970   0.00000  Uiso   1.00
O57    O     0.74954   0.12898   0.64526   0.00000  Uiso   1.00
C58    C     0.76757   0.07149   0.68187   0.00000  Uiso   1.00
C59    C     0.95280   0.17215   0.50444   0.00000  Uiso   1.00
C60    C     0.39748   0.23601   0.24498   0.00000  Uiso   1.00
Ho61   Ho    0.35154   0.30219   0.34360   0.00000  Uiso   1.00
C62    C     0.35845   0.48425   0.51967   0.00000  Uiso   1.00
Ho63   Ho    0.32011   0.45973   0.38922   0.00000  Uiso   1.00
O64    O     0.43223   0.30086   0.27605   0.00000  Uiso   1.00
O65    O     0.33404   0.21650   0.25959   0.00000  Uiso   1.00
O66    O     0.43674   0.26013   0.41404   0.00000  Uiso   1.00
O67    O     0.38484   0.36760   0.43726   0.00000  Uiso   1.00
C68    C     0.44580   0.32287   0.44864   0.00000  Uiso   1.00
C69    C     0.27593   0.44900   0.25983   0.00000  Uiso   1.00
O70    O     0.44171   0.38416   0.30905   0.00000  Uiso   1.00
O71    O     0.42765   0.49872   0.36545   0.00000  Uiso   1.00
O72    O     0.34010   0.53825   0.48117   0.00000  Uiso   1.00
O73    O     0.36249   0.41996   0.48765   0.00000  Uiso   1.00
O74    O     0.27808   0.50990   0.29473   0.00000  Uiso   1.00
O75    O     0.28309   0.38351   0.29744   0.00000  Uiso   1.00
O76    O     0.21760   0.39084   0.40574   0.00000  Uiso   1.00
O77    O     0.25326   0.26779   0.38890   0.00000  Uiso   1.00
C78    C     0.20607   0.31377   0.40341   0.00000  Uiso   1.00
C79    C     0.46140   0.45936   0.32785   0.00000  Uiso   1.00
C80    C     0.43909   0.81729   1.02592   0.00000  Uiso   1.00
C81    C     0.41514   0.79490   0.95734   0.00000  Uiso   1.00
C82    C     0.33841   0.77852   0.93283   0.00000  Uiso   1.00
C83    C     0.28550   0.78311   0.97492   0.00000  Uiso   1.00
C84    C     0.30971   0.81219   0.04107   0.00000  Uiso   1.00
C85    C     0.38569   0.82932   0.06606   0.00000  Uiso   1.00
O86    O     0.44569   0.73728   0.85875   0.00000  Uiso   1.00
O87    O     0.53279   0.82221   0.92424   0.00000  Uiso   1.00
N88    N     0.46668   0.78271   0.91334   0.00000  Uiso   1.00
H89    H     0.27065   0.81429   0.07497   0.00000  Uiso   1.00
H90    H     0.40310   0.84692   0.11867   0.00000  Uiso   1.00
H91    H     0.31976   0.75657   0.88126   0.00000  Uiso   1.00
C92    C     0.43186   0.17898   0.20751   0.00000  Uiso   1.00
C93    C     0.49241   0.20226   0.17586   0.00000  Uiso   1.00
C94    C     0.53275   0.14382   0.15516   0.00000  Uiso   1.00
C95    C     0.51351   0.06268   0.16500   0.00000  Uiso   1.00
C96    C     0.45208   0.03985   0.19445   0.00000  Uiso   1.00
C97    C     0.41130   0.09731   0.21488   0.00000  Uiso   1.00
O98    O     0.58069   0.31087   0.16075   0.00000  Uiso   1.00
O99    O     0.46082   0.32813   0.14365   0.00000  Uiso   1.00
N100   N     0.51230   0.28397   0.16308   0.00000  Uiso   1.00
H101   H     0.43611  -0.02219   0.20226   0.00000  Uiso   1.00
H102   H     0.36577   0.07795   0.24012   0.00000  Uiso   1.00
H103   H     0.58018   0.16200   0.13198   0.00000  Uiso   1.00
C104   C     0.66331   0.33504   0.54766   0.00000  Uiso   1.00
C105   C     0.60638   0.31319   0.58469   0.00000  Uiso   1.00
C106   C     0.53264   0.31942   0.55571   0.00000  Uiso   1.00
C107   C     0.51673   0.34906   0.49240   0.00000  Uiso   1.00
C108   C     0.57485   0.38202   0.46195   0.00000  Uiso   1.00
C109   C     0.64773   0.37530   0.48948   0.00000  Uiso   1.00
O110   O     0.68670   0.29177   0.68518   0.00000  Uiso   1.00
O111   O     0.56964   0.23249   0.66964   0.00000  Uiso   1.00
N112   N     0.62187   0.27629   0.64731   0.00000  Uiso   1.00
H113   H     0.56401   0.40287   0.41230   0.00000  Uiso   1.00
H114   H     0.69059   0.39092   0.46024   0.00000  Uiso   1.00
H115   H     0.48761   0.29471   0.57945   0.00000  Uiso   1.00
C116   C     0.74139   0.06518   0.74675   0.00000  Uiso   1.00
C117   C     0.66702   0.04169   0.75437   0.00000  Uiso   1.00
C118   C     0.65122   0.03569   0.81982   0.00000  Uiso   1.00
C119   C     0.70658   0.05383   0.87711   0.00000  Uiso   1.00
C120   C     0.77866   0.08035   0.86851   0.00000  Uiso   1.00
C121   C     0.79566   0.08582   0.80437   0.00000  Uiso   1.00
O122   O     0.54282   0.98914   0.70715   0.00000  Uiso   1.00
O123   O     0.61683   0.03456   0.63728   0.00000  Uiso   1.00
N124   N     0.60785   0.02059   0.69784   0.00000  Uiso   1.00
H125   H     0.82274   0.09328   0.91136   0.00000  Uiso   1.00
H126   H     0.85240   0.10552   0.79962   0.00000  Uiso   1.00
H127   H     0.59553   1.01402   0.82633   0.00000  Uiso   1.00
C128   C     0.73435   1.04949   0.39779   0.00000  Uiso   1.00
C129   C     0.76840   0.98607   0.37367   0.00000  Uiso   1.00
C130   C     0.76551   0.97311   0.30372   0.00000  Uiso   1.00
C131   C     0.72983   1.02187   0.25738   0.00000  Uiso   1.00
C132   C     0.69402   0.08186   0.28175   0.00000  Uiso   1.00
C133   C     0.69522   0.09451   0.35023   0.00000  Uiso   1.00
O134   O     0.77889   0.91377   0.47197   0.00000  Uiso   1.00
O135   O     0.85828   0.89834   0.40221   0.00000  Uiso   1.00
N136   N     0.80488   0.93395   0.41866   0.00000  Uiso   1.00
H137   H     0.66397   0.11884   0.24764   0.00000  Uiso   1.00
H138   H     0.66774   0.14288   0.36612   0.00000  Uiso   1.00
H139   H     0.79078   0.92430   0.28532   0.00000  Uiso   1.00
C140   C     0.36584   0.49210   0.59298   0.00000  Uiso   1.00
C141   C     0.34819   0.42567   0.63050   0.00000  Uiso   1.00
C142   C     0.33582   0.43872   0.69571   0.00000  Uiso   1.00
C143   C     0.34056   0.51596   0.72392   0.00000  Uiso   1.00
C144   C     0.36708   0.58059   0.69000   0.00000  Uiso   1.00
C145   C     0.37903   0.56872   0.62470   0.00000  Uiso   1.00
O146   O     0.36037   0.28897   0.63338   0.00000  Uiso   1.00
O147   O     0.27371   0.32735   0.55501   0.00000  Uiso   1.00
N148   N     0.33192   0.34589   0.60116   0.00000  Uiso   1.00
H149   H     0.36985   0.64097   0.71059   0.00000  Uiso   1.00
H150   H     0.39254   0.62020   0.59708   0.00000  Uiso   1.00
H151   H     0.31412   0.38881   0.72145   0.00000  Uiso   1.00
C152   C     0.21130   0.46978   0.05148   0.00000  Uiso   1.00
C153   C     0.28262   0.44888   0.07549   0.00000  Uiso   1.00
C154   C     0.30242   0.43682   0.14410   0.00000  Uiso   1.00
C155   C     0.25217   0.44428   0.18753   0.00000  Uiso   1.00
C156   C     0.17937   0.45374   0.16198   0.00000  Uiso   1.00
C157   C     0.15868   0.46437   0.09453   0.00000  Uiso   1.00
O158   O     0.40573   0.46286   0.05502   0.00000  Uiso   1.00
O159   O     0.31594   0.40034   0.97568   0.00000  Uiso   1.00
N160   N     0.33560   0.44196   0.03234   0.00000  Uiso   1.00
H161   H     0.13935   0.45714   0.19486   0.00000  Uiso   1.00
H162   H     0.10233   0.47567   0.07743   0.00000  Uiso   1.00
H163   H     0.35752   0.42450   0.16413   0.00000  Uiso   1.00
C164   C     0.13592   0.27527   0.41963   0.00000  Uiso   1.00
C165   C     0.06997   0.31178   0.41124   0.00000  Uiso   1.00
C166   C     0.00890   0.27647   0.43721   0.00000  Uiso   1.00
C167   C     0.01145   0.20421   0.46819   0.00000  Uiso   1.00
C168   C     0.07456   0.16530   0.47016   0.00000  Uiso   1.00
C169   C     0.13597   0.20059   0.44673   0.00000  Uiso   1.00
O170   O     0.08811   0.38834   0.31885   0.00000  Uiso   1.00
O171   O     0.01915   0.43209   0.38943   0.00000  Uiso   1.00
N172   N     0.06287   0.38209   0.37458   0.00000  Uiso   1.00
H173   H     0.07825   0.10874   0.49265   0.00000  Uiso   1.00
H174   H     0.18483   0.17037   0.45229   0.00000  Uiso   1.00
H175   H    -0.04052   0.30553   0.43329   0.00000  Uiso   1.00
C176   C     0.01243   0.86973   0.65867   0.00000  Uiso   1.00
C177   C     0.08886   0.87969   0.68606   0.00000  Uiso   1.00
C178   C     0.11986   0.81598   0.71753   0.00000  Uiso   1.00
C179   C     0.07621   0.74308   0.72072   0.00000  Uiso   1.00
C180   C     1.00226   0.73201   0.68856   0.00000  Uiso   1.00
C181   C     0.97089   0.79449   0.65715   0.00000  Uiso   1.00
O182   O     0.19207   0.97606   0.72939   0.00000  Uiso   1.00
O183   O     0.12512   0.99417   0.62973   0.00000  Uiso   1.00
N184   N     0.13493   0.95360   0.68281   0.00000  Uiso   1.00
H185   H     0.96731   0.67683   0.69216   0.00000  Uiso   1.00
H186   H     0.91236   0.78569   0.63618   0.00000  Uiso   1.00
H187   H     0.17690   0.82466   0.74302   0.00000  Uiso   1.00
C188   C     1.04977   0.38155   0.79921   0.00000  Uiso   1.00
C189   C     0.97761   0.37670   0.76200   0.00000  Uiso   1.00
C190   C     0.94180   0.30159   0.73572   0.00000  Uiso   1.00
C191   C     0.97666   0.23257   0.74567   0.00000  Uiso   1.00
C192   C     1.04443   0.23717   0.78887   0.00000  Uiso   1.00
C193   C     1.08070   0.31137   0.81543   0.00000  Uiso   1.00
O194   O     0.89539   0.44614   0.68985   0.00000  Uiso   1.00
O195   O     0.95379   0.50870   0.78659   0.00000  Uiso   1.00
N196   N     0.94325   0.44675   0.74479   0.00000  Uiso   1.00
H197   H     1.07255   0.18502   0.79683   0.00000  Uiso   1.00
H198   H     0.13601   0.31474   0.84444   0.00000  Uiso   1.00
H199   H     0.88863   0.29775   0.70304   0.00000  Uiso   1.00
C200   C     0.80407   0.75632   0.04353   0.00000  Uiso   1.00
C201   C     0.87644   0.77233   0.08222   0.00000  Uiso   1.00
C202   C     0.93609   0.74466   0.05793   0.00000  Uiso   1.00
C203   C     0.92479   0.70030  -0.00304   0.00000  Uiso   1.00
C204   C     0.85250   0.68065   0.96102   0.00000  Uiso   1.00
C205   C     0.79287   0.70935   0.98369   0.00000  Uiso   1.00
O206   O     0.94085   0.79897   0.19343   0.00000  Uiso   1.00
O207   O     0.86370   0.88394   0.15169   0.00000  Uiso   1.00
N208   N     0.89112   0.81764   0.14525   0.00000  Uiso   1.00
H209   H     0.84253   0.64604   0.91375   0.00000  Uiso   1.00
H210   H     0.73826   0.69742   0.95321   0.00000  Uiso   1.00
H211   H     0.99173   0.75915   0.08607   0.00000  Uiso   1.00
C212   C     0.58559   0.64675   0.25253   0.00000  Uiso   1.00
C213   C     0.60309   0.63470   0.32149   0.00000  Uiso   1.00
C214   C     0.56865   0.56603   0.34609   0.00000  Uiso   1.00
C215   C     0.52150   0.50750   0.30270   0.00000  Uiso   1.00
C216   C     0.51557   0.51385   0.23394   0.00000  Uiso   1.00
C217   C     0.54581   0.58342   0.20918   0.00000  Uiso   1.00
O218   O     0.63857   0.70558   0.42703   0.00000  Uiso   1.00
O219   O     0.71695   0.71778   0.35438   0.00000  Uiso   1.00
N220   N     0.65190   0.69223   0.36707   0.00000  Uiso   1.00
H221   H     0.48039   0.46962   0.19949   0.00000  Uiso   1.00
H222   H     0.53399   0.58960   0.15573   0.00000  Uiso   1.00
H223   H     0.57503   0.56031   0.39957   0.00000  Uiso   1.00
loop_
_geom_bond_atom_site_label_1
_geom_bond_atom_site_label_2
_geom_bond_distance
_geom_bond_site_symmetry_2
_ccdc_geom_bond_type
C0     O4      1.285   .     A
C0     O5      1.279   .     A
C0     C143    1.463   .     S
Ho1    O4      2.170   .     S
Ho1    O5      2.174   .     S
Ho1    O6      2.161   .     S
Ho1    O7      2.149   .     S
Ho1    O10     2.236   .     S
Ho1    O15     2.081   .     S
Ho1    O17     2.228   .     S
C2     C203    1.474   .     S
C2     O12     1.284   1_655 A
C2     O13     1.270   1_554 A
Ho3    O7      2.188   .     S
Ho3    O11     2.162   .     S
Ho3    O14     2.260   .     S
Ho3    O15     2.119   .     S
Ho3    O16     2.173   .     S
Ho3    O12     2.197   1_556 S
Ho3    O13     2.166   1_455 S
O6     C8      1.230   .     D
O7     C8      1.405   .     S
C8     C188    1.465   1_455 S
C9     O14     1.229   .     D
C9     O15     1.357   .     S
C9     C83     1.482   .     S
O10    C19     1.312   .     A
O11    C19     1.299   .     A
O12    C2      1.284   1_455 A
O12    Ho3     2.197   1_554 S
O13    C2      1.270   1_556 A
O13    Ho3     2.166   1_655 S
O16    C18     1.292   .     A
O17    C18     1.303   .     A
C18    C179    1.465   .     S
C19    C152    1.490   1_556 S
C20    O24     1.280   .     A
C20    O25     1.283   .     A
C20    C212    1.484   .     S
Ho21   O24     2.168   .     S
Ho21   O25     2.199   .     S
Ho21   O26     2.194   .     S
Ho21   O27     2.100   .     S
Ho21   O30     2.248   .     S
Ho21   O35     2.138   .     S
Ho21   O37     2.220   .     S
C22    C119    1.489   .     S
C22    O32     1.287   1_556 A
C22    O33     1.271   1_545 A
Ho23   O27     2.176   .     S
Ho23   O31     2.208   .     S
Ho23   O34     2.271   .     S
Ho23   O35     2.238   .     S
Ho23   O36     2.195   .     S
Ho23   O32     2.203   1_565 S
Ho23   O33     2.166   1_554 S
O26    C28     1.229   .     D
O27    C28     1.402   .     S
C28    C80     1.483   1_554 S
C29    O34     1.207   .     D
C29    O35     1.352   .     S
C29    C131    1.497   .     S
O30    C39     1.319   .     A
O31    C39     1.311   .     A
O32    C22     1.287   1_554 A
O32    Ho23    2.203   1_545 S
O33    C22     1.271   1_565 A
O33    Ho23    2.166   1_556 S
O36    C38     1.296   .     A
O37    C38     1.302   .     A
C38    C200    1.472   .     S
C39    C95     1.475   1_565 S
C40    O44     1.283   .     A
C40    O45     1.279   .     A
C40    C104    1.460   .     S
Ho41   O44     2.161   .     S
Ho41   O45     2.181   .     S
Ho41   O46     2.176   .     S
Ho41   O47     2.172   .     S
Ho41   O50     2.220   .     S
Ho41   O55     2.103   .     S
Ho41   O57     2.207   .     S
C42    C176    1.475   .     S
C42    O52     1.283   1_565 A
C42    O53     1.275   1_455 A
Ho43   O47     2.196   .     S
Ho43   O51     2.177   .     S
Ho43   O54     2.236   .     S
Ho43   O55     2.121   .     S
Ho43   O56     2.205   .     S
Ho43   O52     2.186   1_655 S
Ho43   O53     2.169   1_545 S
O46    C48     1.231   .     D
O47    C48     1.414   .     S
C48    C128    1.505   1_545 S
C49    O54     1.229   .     D
C49    O55     1.365   .     S
C49    C191    1.469   .     S
O50    C59     1.315   .     A
O51    C59     1.306   .     A
O52    C42     1.283   1_545 A
O52    Ho43    2.186   1_455 S
O53    C42     1.275   1_655 A
O53    Ho43    2.169   1_565 S
O56    C58     1.293   .     A
O57    C58     1.291   .     A
C58    C116    1.485   .     S
C59    C167    1.476   1_655 S
C60    O64     1.288   .     A
C60    O65     1.268   .     A
C60    C92     1.476   .     S
Ho61   O64     2.197   .     S
Ho61   O65     2.156   .     S
Ho61   O66     2.151   .     S
Ho61   O67     2.125   .     S
Ho61   O70     2.264   .     S
Ho61   O75     2.123   .     S
Ho61   O77     2.203   .     S
C62    O72     1.268   .     A
C62    O73     1.265   .     A
C62    C140    1.474   .     S
Ho63   O67     2.237   .     S
Ho63   O71     2.160   .     S
Ho63   O72     2.206   .     S
Ho63   O73     2.186   .     S
Ho63   O74     2.191   .     S
Ho63   O75     2.189   .     S
Ho63   O76     2.188   .     S
O66    C68     1.231   .     D
O67    C68     1.426   .     S
C68    C107    1.464   .     S
C69    O74     1.224   .     D
C69    O75     1.380   .     S
C69    C155    1.458   .     S
O70    C79     1.307   .     A
O71    C79     1.283   .     A
O76    C78     1.297   .     A
O77    C78     1.301   .     A
C78    C164    1.476   .     S
C79    C215    1.474   .     S
C80    C81     1.413   .     A
C80    C85     1.413   1_556 A
C80    C28     1.483   1_556 S
C81    C82     1.412   .     A
C81    N88     1.442   .     S
C82    C83     1.413   .     A
C82    H91     1.084   .     S
C83    C84     1.395   1_556 A
C84    C85     1.402   .     A
C84    H89     1.083   .     S
C84    C83     1.395   1_554 A
C85    H90     1.083   .     S
C85    C80     1.413   1_554 A
O86    N88     1.301   .     A
O87    N88     1.301   .     A
C92    C93     1.409   .     A
C92    C97     1.412   .     A
C93    C94     1.404   .     A
C93    N100    1.436   .     S
C94    C95     1.410   .     A
C94    H103    1.084   .     S
C95    C96     1.394   .     A
C95    C39     1.475   1_545 S
C96    C97     1.395   .     A
C96    H101    1.083   .     S
C97    H102    1.084   .     S
O98    N100    1.301   .     A
O99    N100    1.300   .     A
C104   C105    1.419   .     A
C104   C109    1.395   .     A
C105   C106    1.409   .     A
C105   N112    1.442   .     S
C106   C107    1.398   .     A
C106   H115    1.082   .     S
C107   C108    1.400   .     A
C108   C109    1.389   .     A
C108   H113    1.078   .     S
C109   H114    1.084   .     S
O110   N112    1.301   .     A
O111   N112    1.301   .     A
C116   C117    1.421   .     A
C116   C121    1.410   .     A
C117   C118    1.416   .     A
C117   N124    1.447   .     S
C118   C119    1.411   .     A
C118   H127    1.083   1_545 S
C119   C120    1.397   .     A
C120   C121    1.398   .     A
C120   H125    1.083   .     S
C121   H126    1.084   .     S
O122   N124    1.303   1_565 A
O123   N124    1.298   .     A
N124   O122    1.303   1_545 A
H127   C118    1.083   1_565 S
C128   C129    1.423   .     A
C128   C133    1.413   1_565 A
C128   C48     1.505   1_565 S
C129   C130    1.423   .     A
C129   N136    1.439   .     S
C130   C131    1.410   .     A
C130   H139    1.083   .     S
C131   C132    1.399   1_565 A
C132   C133    1.398   .     A
C132   H137    1.082   .     S
C132   C131    1.399   1_545 A
C133   H138    1.083   .     S
C133   C128    1.413   1_545 A
O134   N136    1.301   .     A
O135   N136    1.302   .     A
C140   C141    1.422   .     A
C140   C145    1.404   .     A
C141   C142    1.398   .     A
C141   N148    1.434   .     S
C142   C143    1.397   .     A
C142   H151    1.084   .     S
C143   C144    1.401   .     A
C144   C145    1.395   .     A
C144   H149    1.084   .     S
C145   H150    1.084   .     S
O146   N148    1.301   .     A
O147   N148    1.300   .     A
C152   C153    1.418   .     A
C152   C157    1.414   .     A
C152   C19     1.490   1_554 S
C153   C154    1.411   .     A
C153   N160    1.435   .     S
C154   C155    1.400   .     A
C154   H163    1.080   .     S
C155   C156    1.389   .     A
C156   C157    1.386   .     A
C156   H161    1.084   .     S
C157   H162    1.084   .     S
O158   N160    1.301   .     A
O159   N160    1.301   1_556 A
N160   O159    1.301   1_554 A
C164   C165    1.422   .     A
C164   C169    1.401   .     A
C165   C166    1.407   .     A
C165   N172    1.439   .     S
C166   C167    1.402   .     A
C166   H175    1.083   .     S
C167   C168    1.405   .     A
C167   C59     1.476   1_455 S
C168   C169    1.385   .     A
C168   H173    1.083   .     S
C169   H174    1.084   .     S
O170   N172    1.301   .     A
O171   N172    1.302   .     A
C176   C177    1.416   .     A
C176   C181    1.404   1_455 A
C177   C178    1.409   .     A
C177   N184    1.439   .     S
C178   C179    1.403   .     A
C178   H187    1.083   .     S
C179   C180    1.399   1_455 A
C180   C181    1.394   .     A
C180   H185    1.084   .     S
C180   C179    1.399   1_655 A
C181   H186    1.084   .     S
C181   C176    1.404   1_655 A
O182   N184    1.302   .     A
O183   N184    1.301   .     A
C188   C189    1.409   .     A
C188   C193    1.409   .     A
C188   C8      1.465   1_655 S
C189   C190    1.404   .     A
C189   N196    1.441   .     S
C190   C191    1.409   .     A
C190   H199    1.082   .     S
C191   C192    1.395   .     A
C192   C193    1.395   .     A
C192   H197    1.083   .     S
C193   H198    1.084   1_655 S
O194   N196    1.301   .     A
O195   N196    1.300   .     A
H198   C193    1.084   1_455 S
C200   C201    1.422   .     A
C200   C205    1.400   1_554 A
C201   C202    1.406   .     A
C201   N208    1.437   .     S
C202   C203    1.397   .     A
C202   H211    1.084   .     S
C203   C204    1.405   1_554 A
C204   C205    1.397   .     A
C204   H209    1.084   .     S
C204   C203    1.405   1_556 A
C205   H210    1.083   .     S
C205   C200    1.400   1_556 A
O206   N208    1.302   .     A
O207   N208    1.300   .     A
C212   C213    1.414   .     A
C212   C217    1.410   .     A
C213   C214    1.410   .     A
C213   N220    1.435   .     S
C214   C215    1.409   .     A
C214   H223    1.084   .     S
C215   C216    1.394   .     A
C216   C217    1.393   .     A
C216   H221    1.079   .     S
C217   H222    1.084   .     S
O218   N220    1.302   .     A
O219   N220    1.300   .     A
