data_lcy+N205+E191
_audit_creation_date              2025-01-21
_audit_creation_method            'Materials Studio'
_symmetry_space_group_name_H-M    'P1'
_symmetry_Int_Tables_number       1
_symmetry_cell_setting            triclinic
loop_
_symmetry_equiv_pos_as_xyz
  x,y,z
_cell_length_a                    30.6244
_cell_length_b                    30.5423
_cell_length_c                    30.8488
_cell_angle_alpha                 113.1580
_cell_angle_beta                  93.7556
_cell_angle_gamma                 93.2169
loop_
_atom_site_label
_atom_site_type_symbol
_atom_site_fract_x
_atom_site_fract_y
_atom_site_fract_z
_atom_site_U_iso_or_equiv
_atom_site_adp_type
_atom_site_occupancy
Y0     Y     0.16021   0.58775   0.89403   0.00000  Uiso   1.00
Y1     Y     0.08727   0.67634   0.84075   0.00000  Uiso   1.00
C2     C     0.02784   0.68968   0.90496   0.00000  Uiso   1.00
C3     C     0.08163   0.56877   0.82305   0.00000  Uiso   1.00
C4     C     0.17739   0.55957   0.96530   0.00000  Uiso   1.00
C5     C     0.20664   0.55383   0.81792   0.00000  Uiso   1.00
C6     C     0.17377   0.68995   0.90576   0.00000  Uiso   1.00
C7     C     0.06940   0.72430   0.78516   0.00000  Uiso   1.00
O8     O     0.02374   0.65679   0.86424   0.00000  Uiso   1.00
O9     O     0.06367   0.71529   0.91340   0.00000  Uiso   1.00
O10    O     0.09010   0.58490   0.86767   0.00000  Uiso   1.00
O11    O     0.08716   0.59647   0.80153   0.00000  Uiso   1.00
O12    O     0.19837   0.59451   0.96159   0.00000  Uiso   1.00
O13    O     0.14746   0.53912   0.93192   0.00000  Uiso   1.00
O14    O     0.21665   0.59369   0.85217   0.00000  Uiso   1.00
O15    O     0.17356   0.53108   0.82397   0.00000  Uiso   1.00
O16    O     0.15865   0.69563   0.86920   0.00000  Uiso   1.00
O17    O     0.15050   0.66530   0.92176   0.00000  Uiso   1.00
O18    O     0.05441   0.68187   0.77518   0.00000  Uiso   1.00
O19    O     0.09442   0.74113   0.82298   0.00000  Uiso   1.00
Y20    Y     0.56271   0.85158   0.17818   0.00000  Uiso   1.00
Y21    Y     0.63990   0.89433   0.07048   0.00000  Uiso   1.00
C22    C     0.70253   0.83424   0.06513   0.00000  Uiso   1.00
C23    C     0.64038   0.91992   0.17814   0.00000  Uiso   1.00
C24    C     0.55542   0.77885   0.20625   0.00000  Uiso   1.00
C25    C     0.51675   0.92778   0.21688   0.00000  Uiso   1.00
C26    C     0.54776   0.84511   0.07590   0.00000  Uiso   1.00
C27    C     0.65369   0.94030   0.01290   0.00000  Uiso   1.00
O28    O     0.70626   0.87787   0.09210   0.00000  Uiso   1.00
O29    O     0.66513   0.82067   0.04212   0.00000  Uiso   1.00
O30    O     0.62784   0.87564   0.16221   0.00000  Uiso   1.00
O31    O     0.64525   0.93937   0.14888   0.00000  Uiso   1.00
O32    O     0.53019   0.78195   0.17365   0.00000  Uiso   1.00
O33    O     0.58485   0.81345   0.22420   0.00000  Uiso   1.00
O34    O     0.55344   0.92310   0.23511   0.00000  Uiso   1.00
O35    O     0.50287   0.89185   0.17951   0.00000  Uiso   1.00
O36    O     0.56723   0.87174   0.05893   0.00000  Uiso   1.00
O37    O     0.57024   0.82857   0.10100   0.00000  Uiso   1.00
O38    O     0.66158   0.95988   0.05733   0.00000  Uiso   1.00
O39    O     0.63851   0.89735  -0.00132   0.00000  Uiso   1.00
Y40    Y     0.91223   0.14499   0.55732   0.00000  Uiso   1.00
Y41    Y     0.85759   0.07616   0.66821   0.00000  Uiso   1.00
C42    C     0.91452   0.00913   0.65872   0.00000  Uiso   1.00
C43    C     0.84269   0.06952   0.56159   0.00000  Uiso   1.00
C44    C     0.99501   0.16001   0.53977   0.00000  Uiso   1.00
C45    C     0.84920   0.19344   0.53731   0.00000  Uiso   1.00
C46    C     0.90503   0.16572   0.66474   0.00000  Uiso   1.00
C47    C     0.80206   0.07385   0.73206   0.00000  Uiso   1.00
O48    O     0.92380   0.05309   0.68336   0.00000  Uiso   1.00
O49    O     0.87706   0.00050   0.63634   0.00000  Uiso   1.00
O50    O     0.88419   0.07888   0.56513   0.00000  Uiso   1.00
O51    O     0.82438   0.06635   0.59644   0.00000  Uiso   1.00
O52    O     0.97817   0.18592   0.57657   0.00000  Uiso   1.00
O53    O     0.96881   0.12518   0.51160   0.00000  Uiso   1.00
O54    O     0.87327   0.20920   0.57620   0.00000  Uiso   1.00
O55    O     0.85911   0.15345   0.50819   0.00000  Uiso   1.00
O56    O     0.88582   0.15321   0.69361   0.00000  Uiso   1.00
O57    O     0.90749   0.13408   0.62403   0.00000  Uiso   1.00
O58    O     0.79247   0.05393   0.68792   0.00000  Uiso   1.00
O59    O     0.83940   0.09660   0.74287   0.00000  Uiso   1.00
Y60    Y     0.41736   0.34940   0.44581   0.00000  Uiso   1.00
Y61    Y     0.36445   0.41722   0.33113   0.00000  Uiso   1.00
C62    C     0.43608   0.47442   0.33367   0.00000  Uiso   1.00
C63    C     0.36404   0.43010   0.43918   0.00000  Uiso   1.00
C64    C     0.49926   0.33280   0.46695   0.00000  Uiso   1.00
C65    C     0.34811   0.30599   0.46651   0.00000  Uiso   1.00
C66    C     0.39394   0.32491   0.33698   0.00000  Uiso   1.00
C67    C     0.30389   0.42893   0.26960   0.00000  Uiso   1.00
O68    O     0.43018   0.43075   0.30668   0.00000  Uiso   1.00
O69    O     0.40741   0.48689   0.36251   0.00000  Uiso   1.00
O70    O     0.40195   0.41490   0.43323   0.00000  Uiso   1.00
O71    O     0.34179   0.43412   0.40461   0.00000  Uiso   1.00
O72    O     0.47467   0.30569   0.43063   0.00000  Uiso   1.00
O73    O     0.48128   0.36931   0.49303   0.00000  Uiso   1.00
O74    O     0.36641   0.34658   0.49415   0.00000  Uiso   1.00
O75    O     0.36671   0.28728   0.42880   0.00000  Uiso   1.00
O76    O     0.37357   0.33816   0.30788   0.00000  Uiso   1.00
O77    O     0.40721   0.35689   0.37704   0.00000  Uiso   1.00
O78    O     0.30659   0.45263   0.31368   0.00000  Uiso   1.00
O79    O     0.33013   0.39693   0.25807   0.00000  Uiso   1.00
Ni80   Ni    0.35666   0.77578   1.00309   0.00000  Uiso   1.00
C81    C     0.49967   0.83295   0.06485   0.00000  Uiso   1.00
C82    C     0.47820   0.79694   0.07532   0.00000  Uiso   1.00
C83    C     0.43415   0.78152   1.05829   0.00000  Uiso   1.00
C84    C     0.43173   0.83718   0.02232   0.00000  Uiso   1.00
C85    C     0.47554   0.85378   0.03876   0.00000  Uiso   1.00
H86    H     0.23577   0.73910   0.87751   0.00000  Uiso   1.00
H87    H     0.21288   0.68835   0.98737   0.00000  Uiso   1.00
H88    H     0.28690   0.72360   0.02556   0.00000  Uiso   1.00
H89    H     0.30924   0.77390   0.91875   0.00000  Uiso   1.00
N90    N     0.30133   0.75023   0.97387   0.00000  Uiso   1.00
N91    N     0.41226   0.80115   0.03155   0.00000  Uiso   1.00
H92    H     0.49574   0.77932   1.09445   0.00000  Uiso   1.00
H93    H     0.41789   0.75268   1.06489   0.00000  Uiso   1.00
H94    H     0.41357   0.85186   0.00066   0.00000  Uiso   1.00
H95    H     0.49084   0.88132   0.02948   0.00000  Uiso   1.00
C96    C     0.21845   0.71026   0.92878   0.00000  Uiso   1.00
C97    C     0.23340   0.70641   0.97110   0.00000  Uiso   1.00
C98    C     0.27520   0.72662   0.99309   0.00000  Uiso   1.00
C99    C     0.28771   0.75482   0.93314   0.00000  Uiso   1.00
C100   C     0.24613   0.73500   0.90984   0.00000  Uiso   1.00
Ni101  Ni    0.44050   0.12012   0.28225   0.00000  Uiso   1.00
C102   C     0.40316   0.27486   0.32433   0.00000  Uiso   1.00
C103   C     0.44670   0.26488   0.32982   0.00000  Uiso   1.00
C104   C     0.45652   0.21774   0.31725   0.00000  Uiso   1.00
C105   C     0.38155   0.18983   0.29228   0.00000  Uiso   1.00
C106   C     0.37025   0.23685   0.30455   0.00000  Uiso   1.00
H107   H     0.54060   1.00660   0.29808   0.00000  Uiso   1.00
H108   H     0.44286   0.94991   0.17760   0.00000  Uiso   1.00
H109   H     0.41252   0.02868   0.20539   0.00000  Uiso   1.00
H110   H     0.50809   0.08380   0.32324   0.00000  Uiso   1.00
N111   N     0.45865   0.05960   0.26577   0.00000  Uiso   1.00
N112   N     0.42416   0.18138   0.29903   0.00000  Uiso   1.00
H113   H     0.47304   0.29338   0.34299   0.00000  Uiso   1.00
H114   H     0.49017   0.20993   0.32155   0.00000  Uiso   1.00
H115   H     0.35649   0.16016   0.27719   0.00000  Uiso   1.00
H116   H     0.33640   0.24347   0.29902   0.00000  Uiso   1.00
C117   C     0.49415   0.97198   0.23580   0.00000  Uiso   1.00
C118   C     0.45717   0.97837   0.21025   0.00000  Uiso   1.00
C119   C     0.43990   0.02289   0.22589   0.00000  Uiso   1.00
C120   C     0.49353   0.05380   0.29198   0.00000  Uiso   1.00
C121   C     0.51191   0.01007   0.27759   0.00000  Uiso   1.00
Ni122  Ni    0.68178   0.27835   0.50461   0.00000  Uiso   1.00
C123   C     0.81161   0.21761   0.52783   0.00000  Uiso   1.00
C124   C     0.78452   0.19596   0.48521   0.00000  Uiso   1.00
C125   C     0.74634   0.21638   0.47872   0.00000  Uiso   1.00
C126   C     0.76157   0.27958   0.55457   0.00000  Uiso   1.00
C127   C     0.80022   0.26037   0.56255   0.00000  Uiso   1.00
H128   H     0.53995   0.25588   0.41371   0.00000  Uiso   1.00
H129   H     0.56017   0.38403   0.54265   0.00000  Uiso   1.00
H130   H     0.63455   0.36113   0.55693   0.00000  Uiso   1.00
H131   H     0.61403   0.23604   0.43073   0.00000  Uiso   1.00
N132   N     0.62761   0.29766   0.49431   0.00000  Uiso   1.00
N133   N     0.73534   0.25699   0.51339   0.00000  Uiso   1.00
H134   H     0.79201   0.16277   0.45777   0.00000  Uiso   1.00
H135   H     0.72466   0.19909   0.44647   0.00000  Uiso   1.00
H136   H     0.75188   0.31174   0.58164   0.00000  Uiso   1.00
H137   H     0.82024   0.27792   0.59600   0.00000  Uiso   1.00
C138   C     0.54413   0.32170   0.47696   0.00000  Uiso   1.00
C139   C     0.57136   0.35152   0.51750   0.00000  Uiso   1.00
C140   C     0.61342   0.33867   0.52561   0.00000  Uiso   1.00
C141   C     0.60190   0.26851   0.45478   0.00000  Uiso   1.00
C142   C     0.55994   0.27987   0.44535   0.00000  Uiso   1.00
Ni143  Ni    0.70685   1.02675   0.87575   0.00000  Uiso   1.00
C144   C     0.77432   0.06871   0.76733   0.00000  Uiso   1.00
C145   C     0.73557   1.03788   0.75306   0.00000  Uiso   1.00
C146   C     0.71374   1.02784   0.78696   0.00000  Uiso   1.00
C147   C     0.76610   0.07979   0.84828   0.00000  Uiso   1.00
C148   C     0.78895   0.09076   0.81569   0.00000  Uiso   1.00
H149   H     0.63467   0.90354   0.91740   0.00000  Uiso   1.00
H150   H     0.69300   0.03023   0.03502   0.00000  Uiso   1.00
H151   H     0.71320   0.06466   0.97778   0.00000  Uiso   1.00
H152   H     0.65599   0.94072   0.86299   0.00000  Uiso   1.00
N153   N     0.68509   1.00436   0.91801   0.00000  Uiso   1.00
N154   N     0.72985   1.04808   0.83332   0.00000  Uiso   1.00
H155   H     0.72351   1.01997   0.71600   0.00000  Uiso   1.00
H156   H     0.68513   1.00222   0.77608   0.00000  Uiso   1.00
H157   H     0.77843   0.09472   0.88531   0.00000  Uiso   1.00
H158   H     0.81889   0.11447   0.82796   0.00000  Uiso   1.00
C159   C     0.66235   0.96402  -0.01943   0.00000  Uiso   1.00
C160   C     0.68382   1.01023  -0.00248   0.00000  Uiso   1.00
C161   C     0.69512   0.02983   0.96530   0.00000  Uiso   1.00
C162   C     0.66301   0.96024   0.90084   0.00000  Uiso   1.00
C163   C     0.65121   0.93928   0.93170   0.00000  Uiso   1.00
Ni164  Ni    0.72726   1.01803   0.37803   0.00000  Uiso   1.00
C165   C     0.81533   0.06376   0.51812   0.00000  Uiso   1.00
C166   C     0.83383   1.05045   0.47481   0.00000  Uiso   1.00
C167   C     0.80663   1.03951   0.43312   0.00000  Uiso   1.00
C168   C     0.74377   0.05557   0.47592   0.00000  Uiso   1.00
C169   C     0.76976   0.06693   0.51851   0.00000  Uiso   1.00
H170   H     0.64361   0.88591   0.24777   0.00000  Uiso   1.00
H171   H     0.66842   1.01533   0.22451   0.00000  Uiso   1.00
H172   H     0.70399   0.05424   0.30631   0.00000  Uiso   1.00
H173   H     0.67887   0.92774   0.32875   0.00000  Uiso   1.00
N174   N     0.69274   0.99282   0.32123   0.00000  Uiso   1.00
N175   N     0.76248   1.04151   0.43438   0.00000  Uiso   1.00
H176   H     0.86873   1.04695   0.47298   0.00000  Uiso   1.00
H177   H     0.82049   1.02756   0.39944   0.00000  Uiso   1.00
H178   H     0.70848   0.05620   0.47574   0.00000  Uiso   1.00
H179   H     0.75421   0.07670   0.55116   0.00000  Uiso   1.00
C180   C     0.65263   0.94733   0.22945   0.00000  Uiso   1.00
C181   C     0.66898   0.99568   0.24705   0.00000  Uiso   1.00
C182   C     0.68922   1.01784   0.29336   0.00000  Uiso   1.00
C183   C     0.67508   0.94689   0.30597   0.00000  Uiso   1.00
C184   C     0.65488   0.92335   0.26002   0.00000  Uiso   1.00
Ni185  Ni    0.28926   0.48674   0.63058   0.00000  Uiso   1.00
C186   C     0.34531   0.44115   0.48499   0.00000  Uiso   1.00
C187   C     0.30000   0.44425   0.48840   0.00000  Uiso   1.00
C188   C     0.28364   0.45744   0.53269   0.00000  Uiso   1.00
C189   C     0.35539   0.46478   0.57003   0.00000  Uiso   1.00
C190   C     0.37313   0.45171   0.52653   0.00000  Uiso   1.00
H191   H     0.26971   0.60286   0.79138   0.00000  Uiso   1.00
H192   H     0.19465   0.46575   0.74518   0.00000  Uiso   1.00
H193   H     0.22888   0.44013   0.66972   0.00000  Uiso   1.00
H194   H     0.30217   0.57435   0.71465   0.00000  Uiso   1.00
N195   N     0.26695   0.50603   0.68875   0.00000  Uiso   1.00
N196   N     0.31140   0.46757   0.57233   0.00000  Uiso   1.00
H197   H     0.27753   0.43685   0.45727   0.00000  Uiso   1.00
H198   H     0.24878   0.46009   0.53556   0.00000  Uiso   1.00
H199   H     0.37675   0.47323   0.60212   0.00000  Uiso   1.00
H200   H     0.40834   0.45042   0.52548   0.00000  Uiso   1.00
C201   C     0.22956   0.53645   0.77434   0.00000  Uiso   1.00
C202   C     0.21848   0.49014   0.73961   0.00000  Uiso   1.00
C203   C     0.23774   0.47555   0.69686   0.00000  Uiso   1.00
C204   C     0.27893   0.55080   0.72212   0.00000  Uiso   1.00
C205   C     0.26062   0.56679   0.76553   0.00000  Uiso   1.00
Ni206  Ni    0.22188   0.49230   0.12280   0.00000  Uiso   1.00
C207   C     0.18687   0.54442   1.00452   0.00000  Uiso   1.00
C208   C     0.16158   0.50599   1.00726   0.00000  Uiso   1.00
C209   C     0.17184   0.49162   0.04421   0.00000  Uiso   1.00
C210   C     0.23076   0.55241   0.07575   0.00000  Uiso   1.00
C211   C     0.22165   0.56799   0.03949   0.00000  Uiso   1.00
H212   H     0.29370   0.37962   0.17400   0.00000  Uiso   1.00
H213   H     0.25412   0.50468   0.28599   0.00000  Uiso   1.00
H214   H     0.22116   0.52971   0.22497   0.00000  Uiso   1.00
H215   H     0.25985   0.40728   0.11576   0.00000  Uiso   1.00
N216   N     0.23891   0.46948   0.16771   0.00000  Uiso   1.00
N217   N     0.20604   0.51476   0.07729   0.00000  Uiso   1.00
H218   H     0.13450   0.48697   0.98090   0.00000  Uiso   1.00
H219   H     0.15301   0.46152   0.04615   0.00000  Uiso   1.00
H220   H     0.25805   0.56978   0.10232   0.00000  Uiso   1.00
H221   H     0.24195   0.59773   0.03847   0.00000  Uiso   1.00
C222   C     0.27647   0.43997   0.23475   0.00000  Uiso   1.00
C223   C     0.25472   0.48194   0.24886   0.00000  Uiso   1.00
C224   C     0.23613   0.49627   0.21443   0.00000  Uiso   1.00
C225   C     0.25785   0.42754   0.15315   0.00000  Uiso   1.00
C226   C     0.27692   0.41199   0.18625   0.00000  Uiso   1.00
Ni227  Ni    0.17674   0.22068   0.50279   0.00000  Uiso   1.00
C228   C     0.30810   0.28367   0.47645   0.00000  Uiso   1.00
C229   C     0.28949   0.23834   0.44466   0.00000  Uiso   1.00
C230   C     0.25010   0.21925   0.45346   0.00000  Uiso   1.00
C231   C     0.24749   0.28819   0.52410   0.00000  Uiso   1.00
C232   C     0.28678   0.30858   0.51673   0.00000  Uiso   1.00
H233   H     0.03813   0.11533   0.46040   0.00000  Uiso   1.00
H234   H     0.05444   0.23069   0.59938   0.00000  Uiso   1.00
H235   H     0.12770   0.25353   0.58260   0.00000  Uiso   1.00
H236   H     0.11236   0.14096   0.44660   0.00000  Uiso   1.00
N237   N     0.12334   0.19834   0.51403   0.00000  Uiso   1.00
N238   N     0.22993   0.24446   0.49255   0.00000  Uiso   1.00
H239   H     0.30487   0.21822   0.41303   0.00000  Uiso   1.00
H240   H     0.23525   0.18465   0.42882   0.00000  Uiso   1.00
H241   H     0.23053   0.30756   0.55469   0.00000  Uiso   1.00
H242   H     0.29986   0.34383   0.54179   0.00000  Uiso   1.00
C243   C     0.04031   0.17112   0.53103   0.00000  Uiso   1.00
C244   C     0.06638   0.20993   0.56568   0.00000  Uiso   1.00
C245   C     0.10793   0.22298   0.55638   0.00000  Uiso   1.00
C246   C     0.09931   0.15984   0.48008   0.00000  Uiso   1.00
C247   C     0.05735   0.14541   0.48796   0.00000  Uiso   1.00
Ni248  Ni    1.00808   0.85553   0.69361   0.00000  Uiso   1.00
C249   C     0.94233  -0.02845   0.65970   0.00000  Uiso   1.00
C250   C     0.97979   0.98345   0.69214   0.00000  Uiso   1.00
C251   C     0.00081   0.94721   0.69948   0.00000  Uiso   1.00
C252   C     0.95041   0.88793   0.64175   0.00000  Uiso   1.00
C253   C     0.92833   0.92308   0.63333   0.00000  Uiso   1.00
H254   H     0.11134   0.80764   0.79113   0.00000  Uiso   1.00
H255   H     1.00086   0.70498   0.71695   0.00000  Uiso   1.00
H256   H     0.97717   0.75932   0.67974   0.00000  Uiso   1.00
H257   H     0.08556   0.85932   0.75199   0.00000  Uiso   1.00
N258   N     1.03051   0.81148   0.71391   0.00000  Uiso   1.00
N259   N     0.98530   0.90067   0.67516   0.00000  Uiso   1.00
H260   H    -0.00884   1.02042   0.71363   0.00000  Uiso   1.00
H261   H     0.02818   0.95626   0.72637   0.00000  Uiso   1.00
H262   H     0.93845   0.85064   0.62333   0.00000  Uiso   1.00
H263   H     0.89929   0.91255   0.60832   0.00000  Uiso   1.00
C264   C     0.05795   0.75223   0.75716   0.00000  Uiso   1.00
C265   C     1.02060   0.73811   0.72434   0.00000  Uiso   1.00
C266   C     1.00717   0.76873   0.70320   0.00000  Uiso   1.00
C267   C     0.06792   0.82491   0.74387   0.00000  Uiso   1.00
C268   C     0.08229   0.79569   0.76610   0.00000  Uiso   1.00
Ni269  Ni    0.99348   0.36645   0.72947   0.00000  Uiso   1.00
C270   C     0.06437   0.51824   0.79724   0.00000  Uiso   1.00
C271   C     0.06508   0.48709   0.82069   0.00000  Uiso   1.00
C272   C     0.04419   0.44112   0.79851   0.00000  Uiso   1.00
C273   C     1.02275   0.45510   0.73011   0.00000  Uiso   1.00
C274   C     0.04355   0.50159   0.75099   0.00000  Uiso   1.00
H275   H    -0.01011   0.19219   0.66497   0.00000  Uiso   1.00
H276   H     0.86475   0.24939   0.69704   0.00000  Uiso   1.00
H277   H     0.90208   0.33105   0.72177   0.00000  Uiso   1.00
H278   H     0.02435   0.27435   0.68954   0.00000  Uiso   1.00
N279   N     0.96470   0.30618   0.70591   0.00000  Uiso   1.00
N280   N     0.02301   0.42638   0.75444   0.00000  Uiso   1.00
H281   H     0.08073   0.49846   0.85635   0.00000  Uiso   1.00
H282   H     0.04393   0.41731   0.81680   0.00000  Uiso   1.00
H283   H     1.00564   0.44231   0.69499   0.00000  Uiso   1.00
H284   H     1.04197   0.52471   0.73195   0.00000  Uiso   1.00
C285   C     0.92457   0.21467   0.67819   0.00000  Uiso   1.00
C286   C     0.89971   0.25413   0.69473   0.00000  Uiso   1.00
C287   C     0.92067   0.30013   0.70836   0.00000  Uiso   1.00
C288   C     0.98930   0.26835   0.69020   0.00000  Uiso   1.00
C289   C     0.96978   0.22205   0.67637   0.00000  Uiso   1.00
Ni290  Ni    0.86823   0.73877   1.01287   0.00000  Uiso   1.00
C291   C     0.73961   0.80429   0.05897   0.00000  Uiso   1.00
C292   C     0.77904   0.82310   0.08814   0.00000  Uiso   1.00
C293   C     0.81709   0.79991   0.07583   0.00000  Uiso   1.00
C294   C     0.77755   0.73834   1.00898   0.00000  Uiso   1.00
C295   C     0.73856   0.76034   0.02007   0.00000  Uiso   1.00
H296   H     0.02151   0.76791   0.98705   0.00000  Uiso   1.00
H297   H     0.95461   0.63096   0.89527   0.00000  Uiso   1.00
H298   H     0.89049   0.65189   0.94126   0.00000  Uiso   1.00
H299   H     0.95560   0.78593   0.03108   0.00000  Uiso   1.00
N300   N     0.92034   0.71954   0.98837   0.00000  Uiso   1.00
N301   N     0.81592   0.75927   0.03598   0.00000  Uiso   1.00
H302   H     0.78110   0.85701   0.11842   0.00000  Uiso   1.00
H303   H     0.84819   0.81602   0.09622   0.00000  Uiso   1.00
H304   H     0.77780   0.70629   0.97709   0.00000  Uiso   1.00
H305   H     0.70878   0.74499   0.99665   0.00000  Uiso   1.00
C306   C     0.99308   0.69805   0.93743   0.00000  Uiso   1.00
C307   C     0.95623   0.66469   0.92572   0.00000  Uiso   1.00
C308   C     0.91995   0.67627   0.95180   0.00000  Uiso   1.00
C309   C     0.95655   0.75146   1.00224   0.00000  Uiso   1.00
C310   C     0.99373   0.74125   0.97719   0.00000  Uiso   1.00
Ni311  Ni    0.52451   0.62181   0.27840   0.00000  Uiso   1.00
C312   C     0.55023   0.73926   0.22210   0.00000  Uiso   1.00
C313   C     0.51490   0.70406   0.20220   0.00000  Uiso   1.00
C314   C     0.50893   0.66809   0.21899   0.00000  Uiso   1.00
C315   C     0.57215   0.70013   0.27377   0.00000  Uiso   1.00
C316   C     0.57937   0.73688   0.25802   0.00000  Uiso   1.00
H317   H     0.49179   0.45742   0.26413   0.00000  Uiso   1.00
H318   H     0.45143   0.56977   0.38790   0.00000  Uiso   1.00
H319   H     0.48830   0.62896   0.36351   0.00000  Uiso   1.00
H320   H     0.52776   0.51926   0.24237   0.00000  Uiso   1.00
N321   N     0.50991   0.57684   0.30214   0.00000  Uiso   1.00
N322   N     0.53715   0.66698   0.25432   0.00000  Uiso   1.00
H323   H     0.49160   0.70486   0.17462   0.00000  Uiso   1.00
H324   H     0.48113   0.64151   0.20454   0.00000  Uiso   1.00
H325   H     0.59389   0.69852   0.30208   0.00000  Uiso   1.00
H326   H     0.60696   0.76351   0.27426   0.00000  Uiso   1.00
C327   C     0.46862   0.50873   0.32785   0.00000  Uiso   1.00
C328   C     0.46954   0.55756   0.35690   0.00000  Uiso   1.00
C329   C     0.49039   0.59123   0.34320   0.00000  Uiso   1.00
C330   C     0.51250   0.52970   0.27521   0.00000  Uiso   1.00
C331   C     0.49213   0.49473   0.28767   0.00000  Uiso   1.00
loop_
_geom_bond_atom_site_label_1
_geom_bond_atom_site_label_2
_geom_bond_distance
_geom_bond_site_symmetry_2
_ccdc_geom_bond_type
Y0     O10     2.230   .     S
Y0     O12     2.251   .     S
Y0     O13     2.255   .     S
Y0     O14     2.265   .     S
Y0     O15     2.256   .     S
Y0     O17     2.225   .     S
Y1     O8      2.250   .     S
Y1     O9      2.274   .     S
Y1     O11     2.256   .     S
Y1     O16     2.257   .     S
Y1     O18     2.270   .     S
Y1     O19     2.255   .     S
C2     O8      1.255   .     A
C2     O9      1.261   .     A
C2     C306    1.473   1_455 S
C3     O10     1.269   .     A
C3     O11     1.275   .     A
C3     C270    1.477   .     S
C4     O12     1.262   .     A
C4     O13     1.264   .     A
C4     C207    1.474   .     S
C5     O14     1.264   .     A
C5     O15     1.262   .     A
C5     C201    1.478   .     S
C6     O16     1.269   .     A
C6     O17     1.264   .     A
C6     C96     1.481   .     S
C7     O18     1.259   .     A
C7     O19     1.257   .     A
C7     C264    1.473   .     S
Y20    O30     2.238   .     S
Y20    O32     2.246   .     S
Y20    O33     2.257   .     S
Y20    O34     2.248   .     S
Y20    O35     2.257   .     S
Y20    O37     2.234   .     S
Y21    O28     2.242   .     S
Y21    O29     2.271   .     S
Y21    O31     2.253   .     S
Y21    O36     2.255   .     S
Y21    O38     2.267   .     S
Y21    O39     2.251   .     S
C22    O28     1.257   .     A
C22    O29     1.264   .     A
C22    C291    1.473   .     S
C23    O30     1.270   .     A
C23    O31     1.273   .     A
C23    C180    1.480   .     S
C24    O32     1.264   .     A
C24    O33     1.266   .     A
C24    C312    1.476   .     S
C25    O34     1.264   .     A
C25    O35     1.266   .     A
C25    C117    1.476   .     S
C26    O36     1.270   .     A
C26    O37     1.267   .     A
C26    C81     1.482   .     S
C27    O38     1.261   .     A
C27    O39     1.258   .     A
C27    C159    1.474   .     S
Y40    O50     2.256   .     S
Y40    O52     2.229   .     S
Y40    O53     2.264   .     S
Y40    O54     2.250   .     S
Y40    O55     2.246   .     S
Y40    O57     2.223   .     S
Y41    O48     2.263   .     S
Y41    O49     2.260   .     S
Y41    O51     2.275   .     S
Y41    O56     2.265   .     S
Y41    O58     2.267   .     S
Y41    O59     2.254   .     S
C42    O48     1.260   .     A
C42    O49     1.258   .     A
C42    C249    1.476   .     S
C43    O50     1.275   .     A
C43    O51     1.278   .     A
C43    C165    1.477   .     S
C44    O52     1.264   .     A
C44    O53     1.271   .     A
C44    C243    1.477   1_655 S
C45    O54     1.267   .     A
C45    O55     1.267   .     A
C45    C123    1.476   .     S
C46    O56     1.264   .     A
C46    O57     1.258   .     A
C46    C285    1.465   .     S
C47    O58     1.259   .     A
C47    O59     1.257   .     A
C47    C144    1.473   .     S
Y60    O70     2.251   .     S
Y60    O72     2.227   .     S
Y60    O73     2.263   .     S
Y60    O74     2.249   .     S
Y60    O75     2.250   .     S
Y60    O77     2.226   .     S
Y61    O68     2.268   .     S
Y61    O69     2.257   .     S
Y61    O71     2.283   .     S
Y61    O76     2.272   .     S
Y61    O78     2.269   .     S
Y61    O79     2.255   .     S
C62    O68     1.259   .     A
C62    O69     1.257   .     A
C62    C327    1.476   .     S
C63    O70     1.272   .     A
C63    O71     1.278   .     A
C63    C186    1.481   .     S
C64    O72     1.264   .     A
C64    O73     1.271   .     A
C64    C138    1.476   .     S
C65    O74     1.267   .     A
C65    O75     1.267   .     A
C65    C228    1.477   .     S
C66    O76     1.265   .     A
C66    O77     1.260   .     A
C66    C102    1.470   .     S
C67    O78     1.259   .     A
C67    O79     1.257   .     A
C67    C222    1.474   .     S
Ni80   N90     1.841   .     S
Ni80   N91     1.842   1_556 S
C81    C82     1.404   .     A
C81    C85     1.406   .     A
C82    C83     1.400   1_554 A
C82    H92     1.080   1_554 S
C83    H93     1.082   .     S
C83    C82     1.400   1_556 A
C83    N91     1.361   1_556 A
C84    C85     1.395   .     A
C84    N91     1.358   .     A
C84    H94     1.082   .     S
C85    H95     1.083   .     S
H86    C100    1.083   .     S
H87    C97     1.082   .     S
H88    C98     1.082   1_554 S
H89    C99     1.082   .     S
N90    C98     1.358   .     A
N90    C99     1.360   .     A
N91    Ni80    1.842   1_554 S
N91    C83     1.361   1_554 A
H92    C82     1.080   1_556 S
C96    C97     1.406   .     A
C96    C100    1.404   .     A
C97    C98     1.396   .     A
C98    H88     1.082   1_556 S
C99    C100    1.398   .     A
Ni101  N111    1.843   .     S
Ni101  N112    1.843   .     S
C102   C103    1.399   .     A
C102   C106    1.402   .     A
C103   C104    1.392   .     A
C103   H113    1.083   .     S
C104   N112    1.358   .     A
C104   H114    1.082   .     S
C105   C106    1.404   .     A
C105   N112    1.363   .     A
C105   H115    1.082   .     S
C106   H116    1.083   .     S
H107   C121    1.083   1_565 S
H108   C118    1.083   .     S
H109   C119    1.081   .     S
H110   C120    1.082   .     S
N111   C119    1.360   .     A
N111   C120    1.359   .     A
C117   C118    1.404   .     A
C117   C121    1.403   1_565 A
C118   C119    1.400   1_565 A
C119   C118    1.400   1_545 A
C120   C121    1.396   .     A
C121   H107    1.083   1_545 S
C121   C117    1.403   1_545 A
Ni122  N132    1.841   .     S
Ni122  N133    1.841   .     S
C123   C124    1.402   .     A
C123   C127    1.405   .     A
C124   C125    1.395   .     A
C124   H134    1.083   .     S
C125   N133    1.359   .     A
C125   H135    1.082   .     S
C126   C127    1.400   .     A
C126   N133    1.360   .     A
C126   H136    1.082   .     S
C127   H137    1.083   .     S
H128   C142    1.083   .     S
H129   C139    1.083   .     S
H130   C140    1.082   .     S
H131   C141    1.082   .     S
N132   C140    1.362   .     A
N132   C141    1.357   .     A
C138   C139    1.404   .     A
C138   C142    1.403   .     A
C139   C140    1.403   .     A
C141   C142    1.392   .     A
Ni143  N153    1.837   .     S
Ni143  N154    1.837   .     S
C144   C148    1.403   .     A
C144   C145    1.403   1_545 A
C145   C146    1.398   .     A
C145   H155    1.083   .     S
C145   C144    1.403   1_565 A
C146   N154    1.360   .     A
C146   H156    1.082   .     S
C147   C148    1.394   .     A
C147   H157    1.082   .     S
C147   N154    1.358   1_545 A
C148   H158    1.083   .     S
H149   C163    1.083   .     S
H150   C160    1.083   1_545 S
H151   C161    1.082   .     S
H152   C162    1.082   .     S
N153   C162    1.358   .     A
N153   C161    1.360   1_565 A
N154   C147    1.358   1_565 A
C159   C160    1.403   .     A
C159   C163    1.403   1_554 A
C160   H150    1.083   1_565 S
C160   C161    1.399   1_564 A
C161   N153    1.360   1_545 A
C161   C160    1.399   1_546 A
C162   C163    1.395   .     A
C163   C159    1.403   1_556 A
Ni164  N174    1.840   .     S
Ni164  N175    1.840   .     S
C165   C169    1.405   .     A
C165   C166    1.403   1_545 A
C166   C167    1.396   .     A
C166   H176    1.083   .     S
C166   C165    1.403   1_565 A
C167   N175    1.359   .     A
C167   H177    1.082   .     S
C168   C169    1.397   .     A
C168   H178    1.082   .     S
C168   N175    1.359   1_545 A
C169   H179    1.083   .     S
H170   C184    1.081   .     S
H171   C181    1.083   .     S
H172   C182    1.082   1_545 S
H173   C183    1.082   .     S
N174   C182    1.360   .     A
N174   C183    1.358   .     A
N175   C168    1.359   1_565 A
C180   C181    1.406   .     A
C180   C184    1.404   .     A
C181   C182    1.400   .     A
C182   H172    1.082   1_565 S
C183   C184    1.394   .     A
Ni185  N195    1.846   .     S
Ni185  N196    1.846   .     S
C186   C187    1.404   .     A
C186   C190    1.405   .     A
C187   C188    1.400   .     A
C187   H197    1.083   .     S
C188   N196    1.360   .     A
C188   H198    1.082   .     S
C189   C190    1.398   .     A
C189   N196    1.359   .     A
C189   H199    1.082   .     S
C190   H200    1.083   .     S
H191   C205    1.083   .     S
H192   C202    1.083   .     S
H193   C203    1.082   .     S
H194   C204    1.082   .     S
N195   C203    1.360   .     A
N195   C204    1.361   .     A
C201   C202    1.404   .     A
C201   C205    1.404   .     A
C202   C203    1.398   .     A
C204   C205    1.400   .     A
Ni206  N216    1.839   .     S
Ni206  N217    1.839   .     S
C207   C208    1.403   .     A
C207   C211    1.403   1_556 A
C208   H218    1.083   .     S
C208   C209    1.397   1_556 A
C209   N217    1.359   .     A
C209   H219    1.082   .     S
C209   C208    1.397   1_554 A
C210   C211    1.396   .     A
C210   N217    1.359   .     A
C210   H220    1.082   .     S
C211   H221    1.083   .     S
C211   C207    1.403   1_554 A
H212   C226    1.083   .     S
H213   C223    1.083   .     S
H214   C224    1.082   .     S
H215   C225    1.082   .     S
N216   C224    1.360   .     A
N216   C225    1.358   .     A
C222   C223    1.404   .     A
C222   C226    1.403   .     A
C223   C224    1.399   .     A
C225   C226    1.394   .     A
Ni227  N237    1.843   .     S
Ni227  N238    1.843   .     S
C228   C229    1.405   .     A
C228   C232    1.403   .     A
C229   C230    1.399   .     A
C229   H239    1.083   .     S
C230   N238    1.360   .     A
C230   H240    1.082   .     S
C231   C232    1.396   .     A
C231   N238    1.360   .     A
C231   H241    1.082   .     S
C232   H242    1.083   .     S
H233   C247    1.083   .     S
H234   C244    1.083   .     S
H235   C245    1.082   .     S
H236   C246    1.082   .     S
N237   C245    1.358   .     A
N237   C246    1.362   .     A
C243   C244    1.404   .     A
C243   C247    1.404   .     A
C243   C44     1.477   1_455 S
C244   C245    1.393   .     A
C246   C247    1.402   .     A
Ni248  N258    1.840   .     S
Ni248  N259    1.840   .     S
C249   C250    1.402   1_545 A
C249   C253    1.405   1_545 A
C250   C249    1.402   1_565 A
C250   C251    1.396   1_655 A
C250   H260    1.083   1_655 S
C251   H261    1.082   .     S
C251   C250    1.396   1_455 A
C251   N259    1.359   1_455 A
C252   C253    1.398   .     A
C252   N259    1.360   .     A
C252   H262    1.082   .     S
C253   H263    1.083   .     S
C253   C249    1.405   1_565 A
H254   C268    1.083   .     S
H255   C265    1.083   .     S
H256   C266    1.082   .     S
H257   C267    1.082   .     S
N258   C266    1.360   .     A
N258   C267    1.359   1_655 A
N259   C251    1.359   1_655 A
H260   C250    1.083   1_455 S
C264   C268    1.403   .     A
C264   C265    1.403   1_455 A
C265   C266    1.399   .     A
C265   C264    1.403   1_655 A
C267   C268    1.395   .     A
C267   N258    1.359   1_455 A
Ni269  N279    1.837   .     S
Ni269  N280    1.837   1_655 S
C270   C271    1.404   .     A
C270   C274    1.405   .     A
C271   C272    1.391   .     A
C271   H281    1.083   .     S
C272   N280    1.357   .     A
C272   H282    1.082   .     S
C273   H283    1.082   .     S
C273   C274    1.401   1_655 A
C273   N280    1.361   1_655 A
C274   C273    1.401   1_455 A
C274   H284    1.083   1_455 S
H275   C289    1.084   1_455 S
H276   C286    1.083   .     S
H277   C287    1.082   .     S
H278   C288    1.082   1_455 S
N279   C287    1.362   .     A
N279   C288    1.357   .     A
N280   Ni269   1.837   1_455 S
N280   C273    1.361   1_455 A
H284   C274    1.083   1_655 S
C285   C286    1.401   .     A
C285   C289    1.398   .     A
C286   C287    1.401   .     A
C288   C289    1.392   .     A
C288   H278    1.082   1_655 S
C289   H275    1.084   1_655 S
Ni290  N300    1.838   .     S
Ni290  N301    1.838   1_556 S
C291   C292    1.404   .     A
C291   C295    1.402   .     A
C292   C293    1.394   .     A
C292   H302    1.083   .     S
C293   N301    1.357   .     A
C293   H303    1.082   .     S
C294   H304    1.082   .     S
C294   C295    1.399   1_556 A
C294   N301    1.361   1_556 A
C295   C294    1.399   1_554 A
C295   H305    1.083   1_554 S
H296   C310    1.083   1_455 S
H297   C307    1.083   .     S
H298   C308    1.082   .     S
H299   C309    1.082   1_554 S
N300   C308    1.358   .     A
N300   C309    1.361   .     A
N301   Ni290   1.838   1_554 S
N301   C294    1.361   1_554 A
H305   C295    1.083   1_556 S
C306   C307    1.404   .     A
C306   C310    1.402   .     A
C306   C2      1.473   1_655 S
C307   C308    1.394   .     A
C309   C310    1.399   .     A
C309   H299    1.082   1_556 S
C310   H296    1.083   1_655 S
Ni311  N321    1.841   .     S
Ni311  N322    1.841   .     S
C312   C313    1.403   .     A
C312   C316    1.404   .     A
C313   C314    1.395   .     A
C313   H323    1.083   .     S
C314   N322    1.358   .     A
C314   H324    1.082   .     S
C315   C316    1.400   .     A
C315   N322    1.360   .     A
C315   H325    1.081   .     S
C316   H326    1.083   .     S
H317   C331    1.083   .     S
H318   C328    1.083   .     S
H319   C329    1.082   .     S
H320   C330    1.082   .     S
N321   C329    1.359   .     A
N321   C330    1.360   .     A
C327   C328    1.403   .     A
C327   C331    1.404   .     A
C328   C329    1.395   .     A
C330   C331    1.399   .     A
