data_lcy+N505+E220
_audit_creation_date              2025-01-21
_audit_creation_method            'Materials Studio'
_symmetry_space_group_name_H-M    'P1'
_symmetry_Int_Tables_number       1
_symmetry_cell_setting            triclinic
loop_
_symmetry_equiv_pos_as_xyz
  x,y,z
_cell_length_a                    19.8023
_cell_length_b                    18.5396
_cell_length_c                    18.9149
_cell_angle_alpha                 98.4507
_cell_angle_beta                  98.4335
_cell_angle_gamma                 99.0249
loop_
_atom_site_label
_atom_site_type_symbol
_atom_site_fract_x
_atom_site_fract_y
_atom_site_fract_z
_atom_site_U_iso_or_equiv
_atom_site_adp_type
_atom_site_occupancy
Yb0    Yb    0.19712   0.57533   0.77192   0.00000  Uiso   1.00
Yb1    Yb    0.10882   0.67603   0.94550   0.00000  Uiso   1.00
C2     C     0.00065   0.70044  -0.01299   0.00000  Uiso   1.00
O3     O     0.13711   0.48330   0.79883   0.00000  Uiso   1.00
O4     O     0.13104   0.49922   0.68566   0.00000  Uiso   1.00
O5     O     0.12657   0.65305   0.76931   0.00000  Uiso   1.00
O6     O     0.04884   0.64059   0.84055   0.00000  Uiso   1.00
O7     O     0.27831   0.52913   0.73217   0.00000  Uiso   1.00
O8     O     0.25863   0.63857   0.71437   0.00000  Uiso   1.00
O9     O     0.19797   0.74597   0.92968   0.00000  Uiso   1.00
O10    O     0.18395   0.72491   0.03829   0.00000  Uiso   1.00
C11    C     0.11583   0.45659   0.73144   0.00000  Uiso   1.00
O12    O     0.25666   0.61626   0.87956   0.00000  Uiso   1.00
O13    O     0.16057   0.58405   0.92160   0.00000  Uiso   1.00
O14    O     0.04458   0.75187  -0.02930   0.00000  Uiso   1.00
C15    C     0.07363   0.67121   0.79248   0.00000  Uiso   1.00
O16    O     1.01933   0.63670   0.98783   0.00000  Uiso   1.00
C17    C     0.28637   0.58253   0.69554   0.00000  Uiso   1.00
C18    C     0.22446   0.75253   0.99741   0.00000  Uiso   1.00
C19    C     0.22652   0.59700   0.93114   0.00000  Uiso   1.00
Yb20   Yb    0.66724   0.86596   0.06138   0.00000  Uiso   1.00
Yb21   Yb    0.52375   0.89405   0.24570   0.00000  Uiso   1.00
C22    C     0.44603  -0.01418   0.26482   0.00000  Uiso   1.00
O23    O     0.63624   0.94305  -0.00112   0.00000  Uiso   1.00
O24    O     0.74662   0.94201   0.03489   0.00000  Uiso   1.00
O25    O     0.68225   0.93288   0.17108   0.00000  Uiso   1.00
O26    O     0.59147   0.97446   0.20682   0.00000  Uiso   1.00
O27    O     0.69259   0.79191  -0.02231   0.00000  Uiso   1.00
O28    O     0.72719   0.78775   0.09216   0.00000  Uiso   1.00
O29    O     0.59361   0.84540   0.31054   0.00000  Uiso   1.00
O30    O     0.48161   0.80312   0.29205   0.00000  Uiso   1.00
C31    C     0.69953   0.96167  -0.00922   0.00000  Uiso   1.00
O32    O     0.56402   0.79661   0.04863   0.00000  Uiso   1.00
O33    O     0.55158   0.82571   0.15921   0.00000  Uiso   1.00
O34    O     0.48739   0.97099   0.31791   0.00000  Uiso   1.00
C35    C     0.65467   0.96765   0.21962   0.00000  Uiso   1.00
O36    O     0.44133  -0.05556   0.20252   0.00000  Uiso   1.00
C37    C     0.73337   0.76881   0.02560   0.00000  Uiso   1.00
C38    C     0.54382   0.79389   0.31542   0.00000  Uiso   1.00
C39    C     0.52332   0.80579   0.09358   0.00000  Uiso   1.00
Yb40   Yb    0.89674   0.00707   0.66070   0.00000  Uiso   1.00
Yb41   Yb    0.83113   0.18816   0.56648   0.00000  Uiso   1.00
C42    C     0.72548   0.24236   0.56058   0.00000  Uiso   1.00
O43    O     0.83441   0.06620   0.71910   0.00000  Uiso   1.00
O44    O     0.80960   0.94582   0.69301   0.00000  Uiso   1.00
O45    O     0.84072   0.00205   0.54982   0.00000  Uiso   1.00
O46    O     0.76989   0.08211   0.56157   0.00000  Uiso   1.00
O47    O     0.95581   0.97728   0.74997   0.00000  Uiso   1.00
O48    O    -0.04605   0.92316   0.63792   0.00000  Uiso   1.00
O49    O     0.90092   0.16259   0.49637   0.00000  Uiso   1.00
O50    O     0.90730   0.27635   0.55192   0.00000  Uiso   1.00
C51    C     0.79976   1.00622   0.73059   0.00000  Uiso   1.00
O52    O     0.98091   0.09853   0.65797   0.00000  Uiso   1.00
O53    O     0.89398   0.15483   0.65122   0.00000  Uiso   1.00
O54    O     0.75111   0.22400   0.50271   0.00000  Uiso   1.00
C55    C     0.79057   0.03100   0.52289   0.00000  Uiso   1.00
O56    O     0.76156   0.23763   0.62170   0.00000  Uiso   1.00
C57    C    -0.02753   0.92517   0.70645   0.00000  Uiso   1.00
C58    C     0.93472   0.22978   0.51231   0.00000  Uiso   1.00
C59    C     0.95860   0.15937   0.65918   0.00000  Uiso   1.00
Yb60   Yb    0.38371   0.44668   0.28904   0.00000  Uiso   1.00
Yb61   Yb    0.35148   0.32265   0.47612   0.00000  Uiso   1.00
C62    C     0.45166   0.30552   0.55916   0.00000  Uiso   1.00
O63    O     0.46710   0.48042   0.37499   0.00000  Uiso   1.00
O64    O     0.48365   0.45666   0.26218   0.00000  Uiso   1.00
O65    O     0.37172   0.32417   0.28929   0.00000  Uiso   1.00
O66    O     0.41597   0.30148   0.39734   0.00000  Uiso   1.00
O67    O     0.38410   0.54927   0.25311   0.00000  Uiso   1.00
O68    O     0.32299   0.44484   0.18855   0.00000  Uiso   1.00
O69    O     0.25045   0.26052   0.43361   0.00000  Uiso   1.00
O70    O     0.27189   0.33619   0.53735   0.00000  Uiso   1.00
C71    C     0.50472   0.49471   0.32704   0.00000  Uiso   1.00
O72    O     0.30761   0.48275   0.35170   0.00000  Uiso   1.00
O73    O     0.32598   0.39607   0.40774   0.00000  Uiso   1.00
O74    O     0.39598   0.25538   0.54263   0.00000  Uiso   1.00
C75    C     0.38936   0.27879   0.33117   0.00000  Uiso   1.00
O76    O     0.44668   0.37007   0.54413   0.00000  Uiso   1.00
C77    C     0.34350   0.51522   0.19425   0.00000  Uiso   1.00
C78    C     0.22626   0.29235   0.48732   0.00000  Uiso   1.00
C79    C     0.31284   0.46008   0.41124   0.00000  Uiso   1.00
C80    C     0.44660   0.79775   0.06828   0.00000  Uiso   1.00
C81    C     0.41751   0.79704   0.99478   0.00000  Uiso   1.00
C82    C     0.34513   0.78767   0.97364   0.00000  Uiso   1.00
C83    C     0.30005   0.77818   1.02365   0.00000  Uiso   1.00
C84    C     0.32874   0.77868   0.09592   0.00000  Uiso   1.00
C85    C     0.40064   0.78784   0.11753   0.00000  Uiso   1.00
O86    O     0.44614   0.75440   0.88089   0.00000  Uiso   1.00
O87    O     0.50187   0.86561   0.94241   0.00000  Uiso   1.00
N88    N     0.45994   0.80359   0.94011   0.00000  Uiso   1.00
H89    H     0.29534   0.76829   0.13518   0.00000  Uiso   1.00
H90    H     0.41981   0.78441   0.17266   0.00000  Uiso   1.00
H91    H     0.32406   0.78510   0.91697   0.00000  Uiso   1.00
C92    C     0.38316   0.19752   0.30417   0.00000  Uiso   1.00
C93    C     0.39108   0.16755   0.23302   0.00000  Uiso   1.00
C94    C     0.40627   0.09527   0.21908   0.00000  Uiso   1.00
C95    C     0.41262   0.05206   0.27413   0.00000  Uiso   1.00
C96    C     0.39785   0.07933   0.34193   0.00000  Uiso   1.00
C97    C     0.38240   0.15034   0.35628   0.00000  Uiso   1.00
O98    O     0.43143   0.20642   0.13049   0.00000  Uiso   1.00
O99    O     0.33353   0.23976   0.15925   0.00000  Uiso   1.00
N100   N     0.38794   0.21032   0.17573   0.00000  Uiso   1.00
H101   H     0.40182   0.04724   0.38531   0.00000  Uiso   1.00
H102   H     0.37413   0.17026   0.41045   0.00000  Uiso   1.00
H103   H     0.41704   0.07449   0.16611   0.00000  Uiso   1.00
C104   C     0.65572   0.26177   0.55833   0.00000  Uiso   1.00
C105   C     0.59729   0.21651   0.51174   0.00000  Uiso   1.00
C106   C     0.53075   0.22598   0.52217   0.00000  Uiso   1.00
C107   C     0.52025   0.28473   0.57212   0.00000  Uiso   1.00
C108   C     0.57794   0.33226   0.61601   0.00000  Uiso   1.00
C109   C     0.64507   0.31870   0.61142   0.00000  Uiso   1.00
O110   O     0.55825   0.10026   0.43628   0.00000  Uiso   1.00
O111   O     0.63751   0.18217   0.40262   0.00000  Uiso   1.00
N112   N     0.60333   0.16185   0.45232   0.00000  Uiso   1.00
H113   H     0.57110   0.37986   0.65308   0.00000  Uiso   1.00
H114   H     0.68893   0.35385   0.64816   0.00000  Uiso   1.00
H115   H     0.48672   0.19146   0.48542   0.00000  Uiso   1.00
C116   C     0.76002   0.00627   0.79143   0.00000  Uiso   1.00
C117   C     0.77853   0.06328   0.85423   0.00000  Uiso   1.00
C118   C     0.75743   0.04994   0.91983   0.00000  Uiso   1.00
C119   C     0.71452  -0.01646   0.92244   0.00000  Uiso   1.00
C120   C     0.69131   0.93056   0.85895   0.00000  Uiso   1.00
C121   C     0.71461   0.94119   0.79453   0.00000  Uiso   1.00
O122   O     0.80159   0.17417   0.80708   0.00000  Uiso   1.00
O123   O     0.86966   0.16337   0.90916   0.00000  Uiso   1.00
N124   N     0.82120   0.13331   0.85377   0.00000  Uiso   1.00
H125   H     0.65908   0.87809   0.86068   0.00000  Uiso   1.00
H126   H     0.70010   0.89656   0.74813   0.00000  Uiso   1.00
H127   H     0.77478   0.09107   0.96880   0.00000  Uiso   1.00
C128   C     0.75882   0.01074   0.44421   0.00000  Uiso   1.00
C129   C     0.79313  -0.01781   0.38830   0.00000  Uiso   1.00
C130   C     0.75995  -0.02955   0.31497   0.00000  Uiso   1.00
C131   C     0.69331   0.98701   0.29590   0.00000  Uiso   1.00
C132   C     0.66099   1.01649   0.35154   0.00000  Uiso   1.00
C133   C     0.69241   1.02639   0.42413   0.00000  Uiso   1.00
O134   O     0.87140  -0.08775   0.43956   0.00000  Uiso   1.00
O135   O     0.90926  -0.00796   0.36951   0.00000  Uiso   1.00
N136   N     0.86148  -0.03418   0.40407   0.00000  Uiso   1.00
H137   H     0.61054   1.03098   0.33878   0.00000  Uiso   1.00
H138   H     0.66454   1.04646   0.46562   0.00000  Uiso   1.00
H139   H     0.78600  -0.05299   0.27300   0.00000  Uiso   1.00
C140   C     0.31415   0.50808   0.48154   0.00000  Uiso   1.00
C141   C     0.26730   0.55694   0.49330   0.00000  Uiso   1.00
C142   C     0.26546   0.58891   0.56507   0.00000  Uiso   1.00
C143   C     0.30841   0.57209   0.62447   0.00000  Uiso   1.00
C144   C     0.35981   0.53114   0.61148   0.00000  Uiso   1.00
C145   C     0.36436   0.50278   0.54027   0.00000  Uiso   1.00
O146   O     0.15823   0.58279   0.44448   0.00000  Uiso   1.00
O147   O     0.24316   0.59354   0.37876   0.00000  Uiso   1.00
N148   N     0.21994   0.57250   0.43469   0.00000  Uiso   1.00
H149   H     0.39472   0.51911   0.65611   0.00000  Uiso   1.00
H150   H     0.40699   0.47603   0.53042   0.00000  Uiso   1.00
H151   H     0.22649   0.62236   0.57478   0.00000  Uiso   1.00
C152   C     0.26432   0.58947   1.00281   0.00000  Uiso   1.00
C153   C     0.33588   0.58516   0.01728   0.00000  Uiso   1.00
C154   C     0.36367   0.56847   0.08464   0.00000  Uiso   1.00
C155   C     0.32095   0.55344   0.13556   0.00000  Uiso   1.00
C156   C     0.25183   0.56106   0.12263   0.00000  Uiso   1.00
C157   C     0.22412   0.57963   0.05767   0.00000  Uiso   1.00
O158   O     0.44342   0.62554  -0.01759   0.00000  Uiso   1.00
O159   O     0.36182   0.54618   0.90102   0.00000  Uiso   1.00
N160   N     0.37943   0.59064  -0.03670   0.00000  Uiso   1.00
H161   H     0.21817   0.54865   0.16126   0.00000  Uiso   1.00
H162   H     0.16940   0.58249   0.04930   0.00000  Uiso   1.00
H163   H     0.41717   0.56079   0.09463   0.00000  Uiso   1.00
C164   C     0.15021   0.27966   0.49011   0.00000  Uiso   1.00
C165   C     0.11548   0.33718   0.51593   0.00000  Uiso   1.00
C166   C     0.04383   0.32125   0.51772   0.00000  Uiso   1.00
C167   C     0.00540   0.24935   0.49456   0.00000  Uiso   1.00
C168   C     0.03885   0.19382   0.46447   0.00000  Uiso   1.00
C169   C     0.11009   0.20887   0.46212   0.00000  Uiso   1.00
O170   O     0.11965   0.46566   0.52095   0.00000  Uiso   1.00
O171   O     0.20356   0.42855   0.59139   0.00000  Uiso   1.00
N172   N     0.15072   0.41247   0.53875   0.00000  Uiso   1.00
H173   H     0.01045   0.13781   0.44511   0.00000  Uiso   1.00
H174   H     0.13443   0.16427   0.44008   0.00000  Uiso   1.00
H175   H     0.01874   0.36499   0.54035   0.00000  Uiso   1.00
C176   C     0.00462   0.86590   0.73302   0.00000  Uiso   1.00
C177   C     0.05984   0.84032   0.70368   0.00000  Uiso   1.00
C178   C     0.08075   0.77572   0.72238   0.00000  Uiso   1.00
C179   C     0.04741   0.73603   0.76941   0.00000  Uiso   1.00
C180   C    -0.00767   0.76177   0.79761   0.00000  Uiso   1.00
C181   C    -0.02817   0.82664   0.78046   0.00000  Uiso   1.00
O182   O     0.10896   0.95222   0.66874   0.00000  Uiso   1.00
O183   O     0.12319   0.84442   0.60649   0.00000  Uiso   1.00
N184   N     0.09617   0.88003   0.65657   0.00000  Uiso   1.00
H185   H    -0.03506   0.73157   0.83276   0.00000  Uiso   1.00
H186   H     0.92807   0.84450   0.80175   0.00000  Uiso   1.00
H187   H     0.12429   0.75737   0.70128   0.00000  Uiso   1.00
C188   C     0.07875   0.37977   0.70957   0.00000  Uiso   1.00
C189   C     0.11334   0.31882   0.69443   0.00000  Uiso   1.00
C190   C     0.07396   0.24620   0.67530   0.00000  Uiso   1.00
C191   C     1.00251   0.23398   0.67579   0.00000  Uiso   1.00
C192   C     0.97091   0.29472   0.69709   0.00000  Uiso   1.00
C193   C     1.00811   0.36657   0.71195   0.00000  Uiso   1.00
O194   O     0.22760   0.38013   0.75022   0.00000  Uiso   1.00
O195   O     0.21593   0.28022   0.66415   0.00000  Uiso   1.00
N196   N     0.18768   0.32893   0.70063   0.00000  Uiso   1.00
H197   H     0.91629   0.28694   0.70103   0.00000  Uiso   1.00
H198   H     0.98176   0.41210   0.72675   0.00000  Uiso   1.00
H199   H     0.09907   0.19929   0.66203   0.00000  Uiso   1.00
C200   C     0.79431   0.73785   0.00740   0.00000  Uiso   1.00
C201   C     0.82046   0.68191   0.04108   0.00000  Uiso   1.00
C202   C     0.88818   0.66926   0.03425   0.00000  Uiso   1.00
C203   C     0.93035   0.71314  -0.00288   0.00000  Uiso   1.00
C204   C     0.90331   0.76780   0.96414   0.00000  Uiso   1.00
C205   C     0.83594   0.77874   0.96776   0.00000  Uiso   1.00
O206   O     0.80857   0.60166   0.12756   0.00000  Uiso   1.00
O207   O     0.71166   0.62736   0.06731   0.00000  Uiso   1.00
N208   N     0.77915   0.63743   0.08110   0.00000  Uiso   1.00
H209   H     0.93439   0.80256   0.93520   0.00000  Uiso   1.00
H210   H     0.81785   0.82303   0.94307   0.00000  Uiso   1.00
H211   H     0.90828   0.62582   0.05852   0.00000  Uiso   1.00
C212   C     0.55801   0.72174   0.33201   0.00000  Uiso   1.00
C213   C     0.55054   0.69709   0.39822   0.00000  Uiso   1.00
C214   C     0.54739   0.62075   0.40070   0.00000  Uiso   1.00
C215   C     0.54911   0.56933   0.33822   0.00000  Uiso   1.00
C216   C     0.56718   0.59705   0.27714   0.00000  Uiso   1.00
C217   C     0.57118   0.67234   0.27409   0.00000  Uiso   1.00
O218   O     0.52374   0.72154   0.51721   0.00000  Uiso   1.00
O219   O     0.56350   0.81845   0.46734   0.00000  Uiso   1.00
N220   N     0.54341   0.74725   0.46151   0.00000  Uiso   1.00
H221   H     0.56890   0.55961   0.22805   0.00000  Uiso   1.00
H222   H     0.57804   0.69090   0.22341   0.00000  Uiso   1.00
H223   H     0.53606   0.60025   0.44921   0.00000  Uiso   1.00
loop_
_geom_bond_atom_site_label_1
_geom_bond_atom_site_label_2
_geom_bond_distance
_geom_bond_site_symmetry_2
_ccdc_geom_bond_type
Yb0    O3      2.093   .     S
Yb0    O4      2.117   .     S
Yb0    O5      2.159   .     S
Yb0    O7      2.117   .     S
Yb0    O8      2.088   .     S
Yb0    O12     2.162   .     S
Yb1    O6      2.113   .     S
Yb1    O9      2.107   .     S
Yb1    O13     2.149   .     S
Yb1    O10     2.111   1_556 S
Yb1    O14     2.089   1_556 S
Yb1    O16     2.120   1_455 S
C2     O14     1.291   .     A
C2     O16     1.294   1_454 A
C2     C203    1.482   1_455 S
O3     C11     1.280   .     A
O4     C11     1.291   .     A
O5     C15     1.267   .     A
O6     C15     1.259   .     A
O7     C17     1.292   .     A
O8     C17     1.279   .     A
O9     C18     1.292   .     A
O10    Yb1     2.111   1_554 S
O10    C18     1.293   1_554 A
C11    C188    1.466   .     S
O12    C19     1.281   .     A
O13    C19     1.271   .     A
O14    Yb1     2.089   1_554 S
C15    C179    1.479   .     S
O16    Yb1     2.120   1_655 S
O16    C2      1.294   1_656 A
C17    C143    1.469   .     S
C18    C83     1.484   .     S
C18    O10     1.293   1_556 A
C19    C152    1.486   .     S
Yb20   O23     2.092   .     S
Yb20   O24     2.110   .     S
Yb20   O25     2.209   .     S
Yb20   O27     2.110   .     S
Yb20   O28     2.106   .     S
Yb20   O32     2.197   .     S
Yb21   O26     2.132   .     S
Yb21   O29     2.110   .     S
Yb21   O30     2.125   .     S
Yb21   O33     2.112   .     S
Yb21   O34     2.111   .     S
Yb21   O36     2.125   1_565 S
C22    O36     1.291   .     A
C22    C95     1.484   .     S
C22    O34     1.291   1_545 A
O23    C31     1.284   .     A
O24    C31     1.291   .     A
O25    C35     1.281   .     A
O26    C35     1.269   .     A
O27    C37     1.290   .     A
O28    C37     1.285   .     A
O29    C38     1.284   .     A
O30    C38     1.293   .     A
C31    C119    1.467   1_564 S
O32    C39     1.266   .     A
O33    C39     1.260   .     A
O34    C22     1.291   1_565 A
C35    C131    1.495   .     S
O36    Yb21    2.125   1_545 S
C37    C200    1.478   .     S
C38    C212    1.477   .     S
C39    C80     1.501   .     S
Yb40   O43     2.101   .     S
Yb40   O45     2.206   .     S
Yb40   O52     2.195   .     S
Yb40   O44     2.130   1_545 S
Yb40   O47     2.103   1_545 S
Yb40   O48     2.095   1_645 S
Yb41   O46     2.124   .     S
Yb41   O49     2.110   .     S
Yb41   O50     2.122   .     S
Yb41   O53     2.109   .     S
Yb41   O54     2.101   .     S
Yb41   O56     2.090   .     S
C42    O54     1.296   .     A
C42    O56     1.289   .     A
C42    C104    1.477   .     S
O43    C51     1.277   1_545 A
O44    C51     1.293   .     A
O44    Yb40    2.130   1_565 S
O45    C55     1.278   .     A
O46    C55     1.267   .     A
O47    Yb40    2.103   1_565 S
O47    C57     1.291   1_655 A
O48    C57     1.288   .     A
O48    Yb40    2.095   1_465 S
O49    C58     1.288   .     A
O50    C58     1.295   .     A
C51    O43     1.277   1_565 A
C51    C116    1.486   1_565 S
O52    C59     1.273   .     A
O53    C59     1.254   .     A
C55    C128    1.496   .     S
C57    C176    1.468   .     S
C57    O47     1.291   1_455 A
C58    C167    1.489   1_655 S
C59    C191    1.477   .     S
Yb60   O63     2.086   .     S
Yb60   O64     2.102   .     S
Yb60   O65     2.247   .     S
Yb60   O67     2.111   .     S
Yb60   O68     2.087   .     S
Yb60   O72     2.175   .     S
Yb61   O66     2.133   .     S
Yb61   O69     2.123   .     S
Yb61   O70     2.112   .     S
Yb61   O73     2.079   .     S
Yb61   O74     2.097   .     S
Yb61   O76     2.102   .     S
C62    O74     1.292   .     A
C62    O76     1.285   .     A
C62    C107    1.465   .     S
O63    C71     1.286   .     A
O64    C71     1.296   .     A
O65    C75     1.290   .     A
O66    C75     1.266   .     A
O67    C77     1.287   .     A
O68    C77     1.288   .     A
O69    C78     1.290   .     A
O70    C78     1.291   .     A
C71    C215    1.486   .     S
O72    C79     1.255   .     A
O73    C79     1.249   .     A
C75    C92     1.498   .     S
C77    C155    1.456   .     S
C78    C164    1.497   .     S
C79    C140    1.482   .     S
C80    C85     1.406   .     A
C80    C81     1.422   1_554 A
C81    C82     1.406   .     A
C81    N88     1.432   .     S
C81    C80     1.422   1_556 A
C82    C83     1.404   .     A
C82    H91     1.083   .     S
C83    C84     1.399   1_556 A
C84    C85     1.399   .     A
C84    H89     1.083   .     S
C84    C83     1.399   1_554 A
C85    H90     1.071   .     S
O86    N88     1.301   .     A
O87    N88     1.299   .     A
C92    C93     1.419   .     A
C92    C97     1.411   .     A
C93    C94     1.415   .     A
C93    N100    1.434   .     S
C94    C95     1.407   .     A
C94    H103    1.083   .     S
C95    C96     1.397   .     A
C96    C97     1.395   .     A
C96    H101    1.083   .     S
C97    H102    1.082   .     S
O98    N100    1.303   .     A
O99    N100    1.301   .     A
C104   C105    1.414   .     A
C104   C109    1.410   .     A
C105   C106    1.394   .     A
C105   N112    1.431   .     S
C106   C107    1.396   .     A
C106   H115    1.081   .     S
C107   C108    1.401   .     A
C108   C109    1.404   .     A
C108   H113    1.083   .     S
C109   H114    1.084   .     S
O110   N112    1.301   .     A
O111   N112    1.302   .     A
C116   C117    1.430   .     A
C116   C121    1.401   1_545 A
C116   C51     1.486   1_545 S
C117   C118    1.409   .     A
C117   N124    1.436   .     S
C118   C119    1.393   .     A
C118   H127    1.084   .     S
C119   C120    1.403   1_545 A
C119   C31     1.467   1_546 S
C120   C121    1.394   .     A
C120   H125    1.084   .     S
C120   C119    1.403   1_565 A
C121   H126    1.084   .     S
C121   C116    1.401   1_565 A
O122   N124    1.301   .     A
O123   N124    1.302   .     A
C128   C129    1.421   .     A
C128   C133    1.401   1_545 A
C129   C130    1.415   .     A
C129   N136    1.432   .     S
C130   H139    1.084   .     S
C130   C131    1.409   1_545 A
C131   C132    1.398   .     A
C131   C130    1.409   1_565 A
C132   C133    1.395   .     A
C132   H137    1.077   .     S
C133   H138    1.079   .     S
C133   C128    1.401   1_565 A
O134   N136    1.302   .     A
O135   N136    1.300   .     A
C140   C141    1.413   .     A
C140   C145    1.404   .     A
C141   C142    1.407   .     A
C141   N148    1.437   .     S
C142   C143    1.410   .     A
C142   H151    1.083   .     S
C143   C144    1.391   .     A
C144   C145    1.393   .     A
C144   H149    1.083   .     S
C145   H150    1.069   .     S
O146   N148    1.301   .     A
O147   N148    1.300   .     A
C152   C153    1.420   1_556 A
C152   C157    1.413   1_556 A
C153   C154    1.409   .     A
C153   N160    1.435   .     S
C153   C152    1.420   1_554 A
C154   C155    1.402   .     A
C154   H163    1.084   .     S
C155   C156    1.388   .     A
C156   C157    1.384   .     A
C156   H161    1.084   .     S
C157   H162    1.083   .     S
C157   C152    1.413   1_554 A
O158   N160    1.302   .     A
O159   N160    1.301   1_556 A
N160   O159    1.301   1_554 A
C164   C165    1.423   .     A
C164   C169    1.407   .     A
C165   C166    1.410   .     A
C165   N172    1.432   .     S
C166   C167    1.400   .     A
C166   H175    1.084   .     S
C167   C168    1.405   .     A
C167   C58     1.489   1_455 S
C168   C169    1.403   .     A
C168   H173    1.083   .     S
C169   H174    1.083   .     S
O170   N172    1.301   .     A
O171   N172    1.298   .     A
C176   C177    1.411   .     A
C176   C181    1.404   .     A
C177   C178    1.403   .     A
C177   N184    1.438   .     S
C178   C179    1.407   .     A
C178   H187    1.082   .     S
C179   C180    1.400   .     A
C180   C181    1.395   .     A
C180   H185    1.081   .     S
C181   H186    1.084   1_455 S
O182   N184    1.302   .     A
O183   N184    1.302   .     A
H186   C181    1.084   1_655 S
C188   C189    1.426   .     A
C188   C193    1.390   1_455 A
C189   C190    1.413   .     A
C189   N196    1.440   .     S
C190   H199    1.084   .     S
C190   C191    1.399   1_455 A
C191   C192    1.408   .     A
C191   C190    1.399   1_655 A
C192   C193    1.385   .     A
C192   H197    1.083   .     S
C193   H198    1.084   .     S
C193   C188    1.390   1_655 A
O194   N196    1.300   .     A
O195   N196    1.301   .     A
C200   C201    1.420   .     A
C200   C205    1.403   1_554 A
C201   C202    1.418   .     A
C201   N208    1.441   .     S
C202   C203    1.407   .     A
C202   H211    1.083   .     S
C203   C204    1.400   1_554 A
C203   C2      1.482   1_655 S
C204   C205    1.390   .     A
C204   H209    1.083   .     S
C204   C203    1.400   1_556 A
C205   H210    1.085   .     S
C205   C200    1.403   1_556 A
O206   N208    1.301   .     A
O207   N208    1.301   .     A
C212   C213    1.415   .     A
C212   C217    1.404   .     A
C213   C214    1.415   .     A
C213   N220    1.443   .     S
C214   C215    1.413   .     A
C214   H223    1.083   .     S
C215   C216    1.402   .     A
C216   C217    1.396   .     A
C216   H221    1.083   .     S
C217   H222    1.085   .     S
O218   N220    1.303   .     A
O219   N220    1.301   .     A
