data_lcy+N248+E15
_audit_creation_date              2025-01-21
_audit_creation_method            'Materials Studio'
_symmetry_space_group_name_H-M    'P1'
_symmetry_Int_Tables_number       1
_symmetry_cell_setting            triclinic
loop_
_symmetry_equiv_pos_as_xyz
  x,y,z
_cell_length_a                    17.8815
_cell_length_b                    16.2894
_cell_length_c                    16.6497
_cell_angle_alpha                 86.3013
_cell_angle_beta                  86.5366
_cell_angle_gamma                 91.2910
loop_
_atom_site_label
_atom_site_type_symbol
_atom_site_fract_x
_atom_site_fract_y
_atom_site_fract_z
_atom_site_U_iso_or_equiv
_atom_site_adp_type
_atom_site_occupancy
O0     O     0.18346   0.66182   1.03080   0.00000  Uiso   1.00
Yb1    Yb    0.19616   0.53035   0.85545   0.00000  Uiso   1.00
C2     C     0.23740   0.46099   0.74086   0.00000  Uiso   1.00
Yb3    Yb    0.09025   0.61772   0.96743   0.00000  Uiso   1.00
O4     O     0.23691   0.64945   0.90696   0.00000  Uiso   1.00
C5     C     0.12324   0.72608   0.84847   0.00000  Uiso   1.00
C6     C     0.24300   0.66537   0.98297   0.00000  Uiso   1.00
O7     O     0.03291   0.72911  -0.02089   0.00000  Uiso   1.00
C8     C     0.99009   0.69925   0.03843   0.00000  Uiso   1.00
O9     O     0.26067   0.48919   0.95515   0.00000  Uiso   1.00
O10    O     0.13665   0.49715   0.96813   0.00000  Uiso   1.00
O11    O     0.09775   0.54660   0.78912   0.00000  Uiso   1.00
O12    O     1.00259   0.62474   0.06233   0.00000  Uiso   1.00
O13    O     0.01089   0.56441   0.88992   0.00000  Uiso   1.00
C14    C     0.20464   0.48240   1.00282   0.00000  Uiso   1.00
C15    C     0.03099   0.53619   0.82142   0.00000  Uiso   1.00
O16    O     0.20389   0.41931   0.80257   0.00000  Uiso   1.00
O17    O     0.26325   0.53464   0.74975   0.00000  Uiso   1.00
O18    O     0.07102   0.73081   0.89879   0.00000  Uiso   1.00
O19    O     0.17026   0.65990   0.86736   0.00000  Uiso   1.00
O20    O     0.74001   0.98310   0.13238   0.00000  Uiso   1.00
Yb21   Yb    0.59313   0.84365   0.11625   0.00000  Uiso   1.00
C22    C     0.50026   0.77779   1.03423   0.00000  Uiso   1.00
Yb23   Yb    0.68743   0.90833   0.23552   0.00000  Uiso   1.00
O24    O     0.66456   0.93358   0.03572   0.00000  Uiso   1.00
C25    C     0.58846   1.01657   0.23148   0.00000  Uiso   1.00
C26    C     0.71757   0.98368   0.05850   0.00000  Uiso   1.00
O27    O     0.69887  -0.00622   0.32571   0.00000  Uiso   1.00
C28    C     0.74667   0.94744   0.35971   0.00000  Uiso   1.00
O29    O     0.69709   0.83085   0.04091   0.00000  Uiso   1.00
O30    O     0.69505   0.80104   0.16912   0.00000  Uiso   1.00
O31    O     0.53555   0.78440   0.22151   0.00000  Uiso   1.00
O32    O     0.77468   0.89179   0.31711   0.00000  Uiso   1.00
O33    O     0.61276   0.83053   0.31501   0.00000  Uiso   1.00
C34    C     0.73523   0.80665   0.09595   0.00000  Uiso   1.00
C35    C     0.55758   0.78565   0.29405   0.00000  Uiso   1.00
O36    O     0.56198   0.74365   0.05050   0.00000  Uiso   1.00
O37    O     0.49614   0.85447   1.04742   0.00000  Uiso   1.00
O38    O     0.63648   0.01510   0.28127   0.00000  Uiso   1.00
O39    O     0.59562   0.95591   0.17637   0.00000  Uiso   1.00
O40    O     0.95418   0.22645   0.72108   0.00000  Uiso   1.00
Yb41   Yb    0.81362   0.16221   0.65885   0.00000  Uiso   1.00
C42    C     0.68360   0.20141   0.62526   0.00000  Uiso   1.00
Yb43   Yb    0.97495   0.09113   0.68750   0.00000  Uiso   1.00
O44    O     0.86171   0.28386   0.65200   0.00000  Uiso   1.00
C45    C     0.87226   0.08181   0.80889   0.00000  Uiso   1.00
C46    C     0.91724   0.29164   0.69663   0.00000  Uiso   1.00
O47    O     0.06455   0.05771   0.75962   0.00000  Uiso   1.00
C48    C     0.07173   0.99219   0.71918   0.00000  Uiso   1.00
O49    O     0.87813   0.23899   0.56087   0.00000  Uiso   1.00
O50    O     0.90533   0.11292   0.58927   0.00000  Uiso   1.00
O51    O     0.77246   0.03979   0.68212   0.00000  Uiso   1.00
O52    O     1.03046   0.98564   0.65917   0.00000  Uiso   1.00
O53    O     0.88283   0.03697   0.61542   0.00000  Uiso   1.00
C54    C     0.91967   0.18394   0.54182   0.00000  Uiso   1.00
C55    C     0.81514   0.00564   0.63192   0.00000  Uiso   1.00
O56    O     0.73190   0.17737   0.57292   0.00000  Uiso   1.00
O57    O     0.70785   0.21231   0.69472   0.00000  Uiso   1.00
O58    O     0.90595   0.02356   0.78572   0.00000  Uiso   1.00
O59    O     0.88921   0.15083   0.75972   0.00000  Uiso   1.00
O60    O     0.38617   0.22075   0.47178   0.00000  Uiso   1.00
Yb61   Yb    0.39347   0.38420   0.37756   0.00000  Uiso   1.00
C62    C     0.45662   0.51853   0.39160   0.00000  Uiso   1.00
Yb63   Yb    0.29192   0.22117   0.38068   0.00000  Uiso   1.00
O64    O     0.47770   0.31533   0.43443   0.00000  Uiso   1.00
C65    C     0.25770   0.33828   0.47660   0.00000  Uiso   1.00
C66    C     0.45332   0.25228   0.47943   0.00000  Uiso   1.00
O67    O     0.21296   0.15013   0.45255   0.00000  Uiso   1.00
C68    C     0.16696   0.16159   0.39585   0.00000  Uiso   1.00
O69    O     0.48395   0.30495   0.33515   0.00000  Uiso   1.00
O70    O     0.37282   0.28975   0.29353   0.00000  Uiso   1.00
O71    O     0.29997   0.44468   0.33140   0.00000  Uiso   1.00
O72    O     0.19422   0.19019   0.32519   0.00000  Uiso   1.00
O73    O     0.30986   0.32352   0.28068   0.00000  Uiso   1.00
C74    C     0.44620   0.26446   0.29292   0.00000  Uiso   1.00
C75    C     0.28017   0.39600   0.27981   0.00000  Uiso   1.00
O76    O     0.46464   0.48163   0.32588   0.00000  Uiso   1.00
O77    O     0.42007   0.47944   0.45057   0.00000  Uiso   1.00
O78    O     0.21626   0.31460   0.42916   0.00000  Uiso   1.00
O79    O     0.32544   0.30545   0.46545   0.00000  Uiso   1.00
N80    N     0.35897   0.62008   1.04203   0.00000  Uiso   1.00
N81    N     0.42859   0.64701   1.04634   0.00000  Uiso   1.00
C82    C     0.43436   0.72647   1.01878   0.00000  Uiso   1.00
C83    C     0.36450   0.75112   0.99465   0.00000  Uiso   1.00
C84    C     0.31818   0.68113   1.01104   0.00000  Uiso   1.00
H85    H     0.34938   0.81102   0.96978   0.00000  Uiso   1.00
H86    H     0.34096   0.55963   1.05811   0.00000  Uiso   1.00
H87    H     0.47074   0.61196   1.07105   0.00000  Uiso   1.00
N88    N     0.46877   0.07881   0.19232   0.00000  Uiso   1.00
N89    N     0.43102   0.14522   0.20883   0.00000  Uiso   1.00
C90    C     0.47283   0.19201   0.25373   0.00000  Uiso   1.00
C91    C     0.53955   0.15417   0.26684   0.00000  Uiso   1.00
C92    C     0.53439   0.08234   0.22760   0.00000  Uiso   1.00
H93    H     0.58381   0.17392   0.30341   0.00000  Uiso   1.00
H94    H     0.44773   0.02987   0.16202   0.00000  Uiso   1.00
H95    H     0.37617   0.15619   0.19316   0.00000  Uiso   1.00
N96    N     0.48317   0.20819   0.61995   0.00000  Uiso   1.00
N97    N     0.54508   0.20179   0.65975   0.00000  Uiso   1.00
C98    C     0.60485   0.21053   0.60624   0.00000  Uiso   1.00
C99    C     0.58010   0.22221   0.52953   0.00000  Uiso   1.00
C100   C     0.50279   0.22079   0.54067   0.00000  Uiso   1.00
H101   H     0.61375   0.23382   0.47347   0.00000  Uiso   1.00
H102   H     0.42899   0.20913   0.64720   0.00000  Uiso   1.00
H103   H     0.54611   0.19201   0.72231   0.00000  Uiso   1.00
N104   N     0.79664   0.10683   1.00916   0.00000  Uiso   1.00
N105   N     0.83552   0.13369   0.94206   0.00000  Uiso   1.00
C106   C     0.82508   0.08041   0.88459   0.00000  Uiso   1.00
C107   C     0.77628   0.01740   0.91623   0.00000  Uiso   1.00
C108   C     0.75944   0.03684   0.99542   0.00000  Uiso   1.00
H109   H     0.76057  -0.03807   0.88819   0.00000  Uiso   1.00
H110   H     0.79977   0.13304   0.06482   0.00000  Uiso   1.00
H111   H     0.87368   0.18363   0.93811   0.00000  Uiso   1.00
N112   N     0.68826  -0.06505   0.49722   0.00000  Uiso   1.00
N113   N     0.70675  -0.05623   0.57167   0.00000  Uiso   1.00
C114   C     0.78121   0.95926   0.57059   0.00000  Uiso   1.00
C115   C     0.81187  -0.04221   0.49158   0.00000  Uiso   1.00
C116   C     0.75051  -0.05586   0.44728   0.00000  Uiso   1.00
H117   H     0.86808   0.97624   0.46819   0.00000  Uiso   1.00
H118   H     0.63311  -0.07253   0.48043   0.00000  Uiso   1.00
H119   H     0.66778  -0.05298   0.62087   0.00000  Uiso   1.00
N120   N     0.16039   0.44438   0.62640   0.00000  Uiso   1.00
N121   N     0.16607   0.41606   0.55406   0.00000  Uiso   1.00
C122   C     0.23613   0.38973   0.54110   0.00000  Uiso   1.00
C123   C     0.27775   0.40273   0.60695   0.00000  Uiso   1.00
C124   C     0.22662   0.43605   0.66017   0.00000  Uiso   1.00
H125   H     0.33460   0.38469   0.61695   0.00000  Uiso   1.00
H126   H     0.11136   0.46748   0.65274   0.00000  Uiso   1.00
H127   H     0.12163   0.41099   0.51642   0.00000  Uiso   1.00
N128   N     0.17554   0.46857   0.21768   0.00000  Uiso   1.00
N129   N     0.15540   0.48987   0.14436   0.00000  Uiso   1.00
C130   C     0.20687   0.46340   0.09007   0.00000  Uiso   1.00
C131   C     0.26144   0.42168   0.13038   0.00000  Uiso   1.00
C132   C     0.23919   0.42664   0.21119   0.00000  Uiso   1.00
H133   H     0.31140   0.39436   0.10488   0.00000  Uiso   1.00
H134   H     0.14607   0.48269   0.27101   0.00000  Uiso   1.00
H135   H     0.10810   0.52392   0.13203   0.00000  Uiso   1.00
N136   N    -0.03391   0.15270   0.40423   0.00000  Uiso   1.00
N137   N     0.03220   0.13928   0.36766   0.00000  Uiso   1.00
C138   C     0.08606   0.16088   0.41619   0.00000  Uiso   1.00
C139   C     0.05294   0.19139   0.48525   0.00000  Uiso   1.00
C140   C    -0.02330   0.18717   0.47476   0.00000  Uiso   1.00
H141   H     0.08054   0.21125   0.53732   0.00000  Uiso   1.00
H142   H     0.91460   0.13330   0.38396   0.00000  Uiso   1.00
H143   H     0.04016   0.11261   0.31227   0.00000  Uiso   1.00
N144   N     0.20169   0.84881   0.79953   0.00000  Uiso   1.00
N145   N     0.18600   0.92409   0.77103   0.00000  Uiso   1.00
C146   C     0.11654   0.92155   0.74414   0.00000  Uiso   1.00
C147   C     0.08746   0.84197   0.75522   0.00000  Uiso   1.00
C148   C     0.14224   0.79738   0.79183   0.00000  Uiso   1.00
H149   H     1.02985   0.82232   0.74932   0.00000  Uiso   1.00
H150   H     0.24891   0.83521   0.83156   0.00000  Uiso   1.00
H151   H     0.22068   0.97654   0.77384   0.00000  Uiso   1.00
N152   N     0.88124   0.43400   0.72953   0.00000  Uiso   1.00
N153   N     0.90929   0.49778   0.76414   0.00000  Uiso   1.00
C154   C     0.97987   0.48127   0.78188   0.00000  Uiso   1.00
C155   C    -0.00334   0.40228   0.75952   0.00000  Uiso   1.00
C156   C     0.93267   0.37441   0.72603   0.00000  Uiso   1.00
H157   H     0.04773   0.36922   0.76791   0.00000  Uiso   1.00
H158   H     0.82641   0.43035   0.71120   0.00000  Uiso   1.00
H159   H     0.88051   0.55161   0.77489   0.00000  Uiso   1.00
N160   N     0.93353   0.83187   0.06006   0.00000  Uiso   1.00
N161   N     0.86565   0.86070   0.06998   0.00000  Uiso   1.00
C162   C     0.81670   0.79701   0.08690   0.00000  Uiso   1.00
C163   C     0.85538   0.72398   0.08871   0.00000  Uiso   1.00
C164   C     0.92960   0.74917   0.07025   0.00000  Uiso   1.00
H165   H     0.83200   0.66188   0.09393   0.00000  Uiso   1.00
H166   H     0.98116   0.86828   0.04144   0.00000  Uiso   1.00
H167   H     0.85381   0.92297   0.06211   0.00000  Uiso   1.00
N168   N     0.43379   0.66096   0.42556   0.00000  Uiso   1.00
N169   N     0.45978   0.73472   0.39821   0.00000  Uiso   1.00
C170   C     0.52382   0.72491   0.35336   0.00000  Uiso   1.00
C171   C     0.53869   0.64228   0.35090   0.00000  Uiso   1.00
C172   C     0.48052   0.60369   0.39718   0.00000  Uiso   1.00
H173   H     0.58004   0.61392   0.31194   0.00000  Uiso   1.00
H174   H     0.38033   0.64952   0.45409   0.00000  Uiso   1.00
H175   H     0.43019   0.78918   0.40295   0.00000  Uiso   1.00
loop_
_geom_bond_atom_site_label_1
_geom_bond_atom_site_label_2
_geom_bond_distance
_geom_bond_site_symmetry_2
_ccdc_geom_bond_type
O0     C6      1.288   .     A
O0     Yb3     2.160   .     S
Yb1    Yb3     3.021   .     S
Yb1    O4      2.293   .     S
Yb1    O9      2.158   .     S
Yb1    O10     2.132   .     S
Yb1    O11     2.146   .     S
Yb1    O16     2.066   .     S
Yb1    O17     2.066   .     S
Yb1    O19     2.190   .     S
C2     O16     1.301   .     A
C2     O17     1.296   .     A
C2     C124    1.451   .     S
Yb3    O10     2.149   .     S
Yb3    O13     2.178   .     S
Yb3    O18     2.150   .     S
Yb3    O19     2.194   .     S
Yb3    O7      2.118   1_556 S
Yb3    O12     2.168   1_456 S
O4     C6      1.319   .     A
C5     O18     1.223   .     D
C5     O19     1.413   .     S
C5     C148    1.468   .     S
C6     C84     1.472   .     S
O7     Yb3     2.118   1_554 S
O7     C8      1.276   1_455 A
C8     O12     1.281   .     A
C8     C164    1.462   .     S
C8     O7      1.276   1_655 A
O9     C14     1.238   .     D
O10    C14     1.396   .     S
O11    C15     1.282   .     A
O12    Yb3     2.168   1_654 S
O13    C15     1.291   .     A
C14    C130    1.469   1_556 S
C15    C154    1.477   1_455 S
O20    C26     1.316   .     A
O20    Yb23    2.191   .     S
Yb21   Yb23    2.914   .     S
Yb21   O24     2.243   .     S
Yb21   O29     2.201   .     S
Yb21   O30     2.180   .     S
Yb21   O31     2.141   .     S
Yb21   O36     2.104   .     S
Yb21   O39     2.141   .     S
Yb21   O37     2.140   1_554 S
C22    O37     1.285   .     A
C22    C82     1.474   .     S
C22    O36     1.283   1_556 A
Yb23   O30     2.130   .     S
Yb23   O32     2.140   .     S
Yb23   O33     2.153   .     S
Yb23   O39     2.103   .     S
Yb23   O27     2.128   1_565 S
Yb23   O38     2.143   1_565 S
O24    C26     1.325   .     A
C25    O39     1.394   .     S
C25    O38     1.229   1_565 D
C25    C92     1.460   1_565 S
C26    C108    1.474   1_564 S
O27    Yb23    2.128   1_545 S
O27    C28     1.286   1_545 A
C28    O32     1.279   .     A
C28    O27     1.286   1_565 A
C28    C116    1.461   1_565 S
O29    C34     1.225   .     D
O30    C34     1.373   .     S
O31    C35     1.294   .     A
O33    C35     1.293   .     A
C34    C162    1.468   .     S
C35    C170    1.447   .     S
O36    C22     1.283   1_554 A
O37    Yb21    2.140   1_556 S
O38    Yb23    2.143   1_545 S
O38    C25     1.229   1_545 D
O40    C46     1.318   .     A
O40    Yb43    2.341   .     S
Yb41   Yb43    3.184   .     S
Yb41   O44     2.136   .     S
Yb41   O49     2.236   .     S
Yb41   O50     2.151   .     S
Yb41   O51     2.114   .     S
Yb41   O56     2.113   .     S
Yb41   O57     2.144   .     S
Yb41   O59     2.220   .     S
C42    O56     1.276   .     A
C42    O57     1.281   .     A
C42    C98     1.471   .     S
Yb43   O50     2.131   .     S
Yb43   O53     2.289   .     S
Yb43   O58     2.207   .     S
Yb43   O59     2.177   .     S
Yb43   O47     2.120   1_655 S
Yb43   O52     2.070   1_545 S
O44    C46     1.285   .     A
C45    O58     1.207   .     D
C45    O59     1.365   .     S
C45    C106    1.472   .     S
C46    C156    1.489   .     S
O47    Yb43    2.120   1_455 S
O47    C48     1.303   1_545 A
C48    C146    1.469   .     S
C48    O47     1.303   1_565 A
C48    O52     1.286   1_455 A
O49    C54     1.223   .     D
O50    C54     1.368   .     S
O51    C55     1.262   .     A
O52    Yb43    2.070   1_565 S
O52    C48     1.286   1_655 A
O53    C55     1.310   .     A
C54    C140    1.463   1_655 S
C55    C114    1.461   1_545 S
O60    C66     1.312   .     A
O60    Yb63    2.334   .     S
Yb61   Yb63    3.179   .     S
Yb61   O64     2.130   .     S
Yb61   O69     2.204   .     S
Yb61   O70     2.185   .     S
Yb61   O71     2.119   .     S
Yb61   O76     2.117   .     S
Yb61   O77     2.095   .     S
Yb61   O79     2.177   .     S
C62    O76     1.284   .     A
C62    O77     1.273   .     A
C62    C172    1.453   .     S
Yb63   O67     2.076   .     S
Yb63   O70     2.216   .     S
Yb63   O72     2.092   .     S
Yb63   O73     2.282   .     S
Yb63   O78     2.217   .     S
Yb63   O79     2.133   .     S
O64    C66     1.283   .     A
C65    O78     1.191   .     D
C65    O79     1.343   .     S
C65    C122    1.444   .     S
C66    C100    1.465   .     S
O67    C68     1.296   .     A
C68    O72     1.299   .     A
C68    C138    1.465   .     S
O69    C74     1.217   .     D
O70    C74     1.384   .     S
O71    C75     1.266   .     A
O73    C75     1.305   .     A
C74    C90     1.460   .     S
C75    C132    1.461   .     S
N80    N81     1.318   .     A
N80    C84     1.341   .     A
N80    H86     1.042   .     S
N81    C82     1.345   .     A
N81    H87     1.044   .     S
C82    C83     1.395   .     A
C83    C84     1.397   .     A
C83    H85     1.082   .     S
N88    N89     1.323   .     A
N88    C92     1.345   .     A
N88    H94     1.045   .     S
N89    C90     1.347   .     A
N89    H95     1.046   .     S
C90    C91     1.378   .     A
C91    C92     1.380   .     A
C91    H93     1.083   .     S
C92    C25     1.460   1_545 S
N96    N97     1.327   .     A
N96    C100    1.347   .     A
N96    H102    1.046   .     S
N97    C98     1.348   .     A
N97    H103    1.045   .     S
C98    C99     1.380   .     A
C99    C100    1.383   .     A
C99    H101    1.083   .     S
N104   N105    1.324   .     A
N104   C108    1.346   .     A
N104   H110    1.049   1_556 S
N105   C106    1.351   .     A
N105   H111    1.046   .     S
C106   C107    1.388   .     A
C107   C108    1.393   .     A
C107   H109    1.083   .     S
C108   C26     1.474   1_546 S
H110   N104    1.049   1_554 S
N112   N113    1.318   .     A
N112   C116    1.348   .     A
N112   H118    1.048   .     S
N113   H119    1.048   .     S
N113   C114    1.348   1_545 A
C114   N113    1.348   1_565 A
C114   C115    1.396   1_565 A
C114   C55     1.461   1_565 S
C115   C116    1.380   .     A
C115   C114    1.396   1_545 A
C115   H117    1.085   1_545 S
C116   C28     1.461   1_545 S
H117   C115    1.085   1_565 S
N120   N121    1.316   .     A
N120   C124    1.347   .     A
N120   H126    1.045   .     S
N121   C122    1.343   .     A
N121   H127    1.046   .     S
C122   C123    1.386   .     A
C123   C124    1.379   .     A
C123   H125    1.084   .     S
N128   N129    1.321   .     A
N128   C132    1.343   .     A
N128   H134    1.046   .     S
N129   C130    1.348   .     A
N129   H135    1.045   .     S
C130   C131    1.384   .     A
C130   C14     1.469   1_554 S
C131   C132    1.388   .     A
C131   H133    1.083   .     S
N136   N137    1.326   .     A
N136   C140    1.356   .     A
N136   H142    1.049   1_455 S
N137   C138    1.349   .     A
N137   H143    1.048   .     S
C138   C139    1.387   .     A
C139   C140    1.386   .     A
C139   H141    1.087   .     S
C140   C54     1.463   1_455 S
H142   N136    1.049   1_655 S
N144   N145    1.328   .     A
N144   C148    1.356   .     A
N144   H150    1.046   .     S
N145   C146    1.346   .     A
N145   H151    1.050   .     S
C146   C147    1.383   .     A
C147   C148    1.381   .     A
C147   H149    1.084   1_455 S
H149   C147    1.084   1_655 S
N152   N153    1.323   .     A
N152   C156    1.354   .     A
N152   H158    1.046   .     S
N153   C154    1.343   .     A
N153   H159    1.046   .     S
C154   C155    1.396   1_655 A
C154   C15     1.477   1_655 S
C155   H157    1.082   .     S
C155   C154    1.396   1_455 A
C155   C156    1.383   1_455 A
C156   C155    1.383   1_655 A
N160   N161    1.316   .     A
N160   C164    1.347   .     A
N160   H166    1.046   .     S
N161   C162    1.347   .     A
N161   H167    1.042   .     S
C162   C163    1.389   .     A
C163   C164    1.391   .     A
C163   H165    1.082   .     S
N168   N169    1.321   .     A
N168   C172    1.355   .     A
N168   H174    1.049   .     S
N169   C170    1.347   .     A
N169   H175    1.048   .     S
C170   C171    1.381   .     A
C171   C172    1.372   .     A
C171   H173    1.085   .     S
