data_lcy+N123+E191
_audit_creation_date              2025-01-21
_audit_creation_method            'Materials Studio'
_symmetry_space_group_name_H-M    'P1'
_symmetry_Int_Tables_number       1
_symmetry_cell_setting            triclinic
loop_
_symmetry_equiv_pos_as_xyz
  x,y,z
_cell_length_a                    31.9958
_cell_length_b                    24.8188
_cell_length_c                    30.4388
_cell_angle_alpha                 91.5232
_cell_angle_beta                  101.2893
_cell_angle_gamma                 95.4129
loop_
_atom_site_label
_atom_site_type_symbol
_atom_site_fract_x
_atom_site_fract_y
_atom_site_fract_z
_atom_site_U_iso_or_equiv
_atom_site_adp_type
_atom_site_occupancy
Ce0    Ce    0.18390   0.62535   0.86817   0.00000  Uiso   1.00
Ce1    Ce    0.10920   0.64778   0.92016   0.00000  Uiso   1.00
C2     C     0.19065   0.70064   0.95095   0.00000  Uiso   1.00
C3     C     0.23552   0.59812   0.81269   0.00000  Uiso   1.00
C4     C     0.10580   0.69930   0.82241   0.00000  Uiso   1.00
C5     C     0.10393   0.56994   0.83877   0.00000  Uiso   1.00
C6     C     0.04567   0.66262   0.96365   0.00000  Uiso   1.00
C7     C     0.18647   0.57778   0.96926   0.00000  Uiso   1.00
O8     O     0.16808   0.68206   0.97541   0.00000  Uiso   1.00
O9     O     0.16920   0.69638   0.90743   0.00000  Uiso   1.00
O10    O     0.23947   0.64529   0.83180   0.00000  Uiso   1.00
O11    O     0.20742   0.56468   0.82422   0.00000  Uiso   1.00
O12    O     0.14058   0.67781   0.81774   0.00000  Uiso   1.00
O13    O     0.08659   0.69152   0.85587   0.00000  Uiso   1.00
O14    O     0.12380   0.59386   0.81426   0.00000  Uiso   1.00
O15    O     0.12534   0.57622   0.88234   0.00000  Uiso   1.00
O16    O     0.04867   0.61781   0.94352   0.00000  Uiso   1.00
O17    O     0.07583   0.69995   0.96247   0.00000  Uiso   1.00
O18    O     0.15071   0.59816   0.97103   0.00000  Uiso   1.00
O19    O     0.20562   0.58055   0.93501   0.00000  Uiso   1.00
Ce20   Ce    0.59503   0.91268   0.11026   0.00000  Uiso   1.00
Ce21   Ce    0.66266   0.84158   0.08946   0.00000  Uiso   1.00
C22    C     0.57757   0.80427   0.05472   0.00000  Uiso   1.00
C23    C     0.54792   0.98661   0.13888   0.00000  Uiso   1.00
C24    C     0.66429   0.96157   0.05067   0.00000  Uiso   1.00
C25    C     0.66413   0.93776   0.17672   0.00000  Uiso   1.00
C26    C     0.72418   0.78197   0.07336   0.00000  Uiso   1.00
C27    C     0.59960   0.79470   0.15699   0.00000  Uiso   1.00
O28    O     0.60371   0.77539   0.07318   0.00000  Uiso   1.00
O29    O     0.59575   0.85590   0.05184   0.00000  Uiso   1.00
O30    O     0.53446   0.95792   0.10245   0.00000  Uiso   1.00
O31    O     0.58445   0.97663   0.16042   0.00000  Uiso   1.00
O32    O     0.63061   0.97000   0.06681   0.00000  Uiso   1.00
O33    O     0.68436   0.91877   0.05748   0.00000  Uiso   1.00
O34    O     0.63510   0.96668   0.16817   0.00000  Uiso   1.00
O35    O     0.65530   0.88871   0.15186   0.00000  Uiso   1.00
O36    O     0.72580   0.80648   0.11120   0.00000  Uiso   1.00
O37    O     0.69016   0.78621   0.04401   0.00000  Uiso   1.00
O38    O     0.62936   0.78496   0.13473   0.00000  Uiso   1.00
O39    O     0.57987   0.83876   0.15341   0.00000  Uiso   1.00
Ce40   Ce    0.87123   0.12444   0.56436   0.00000  Uiso   1.00
Ce41   Ce    0.82169   0.10850   0.64680   0.00000  Uiso   1.00
C42    C     0.79196   0.04782   0.56671   0.00000  Uiso   1.00
C43    C     0.92585   0.14203   0.50751   0.00000  Uiso   1.00
C44    C     0.91481   0.05971   0.65325   0.00000  Uiso   1.00
C45    C     0.89869   0.18994   0.64168   0.00000  Uiso   1.00
C46    C     0.78129   0.09749   0.71667   0.00000  Uiso   1.00
C47    C     0.77671   0.17217   0.55815   0.00000  Uiso   1.00
O48    O     0.76869   0.06794   0.58770   0.00000  Uiso   1.00
O49    O     0.83322   0.05543   0.58924   0.00000  Uiso   1.00
O50    O     0.90500   0.09596   0.50947   0.00000  Uiso   1.00
O51    O     0.91571   0.17983   0.53137   0.00000  Uiso   1.00
O52    O     0.91883   0.07970   0.61497   0.00000  Uiso   1.00
O53    O     0.88315   0.06682   0.67322   0.00000  Uiso   1.00
O54    O     0.92225   0.16557   0.62409   0.00000  Uiso   1.00
O55    O     0.85733   0.17859   0.61985   0.00000  Uiso   1.00
O56    O     0.80101   0.14215   0.70861   0.00000  Uiso   1.00
O57    O     0.78116   0.05852   0.68822   0.00000  Uiso   1.00
O58    O     0.77421   0.15459   0.59777   0.00000  Uiso   1.00
O59    O     0.80852   0.16599   0.53780   0.00000  Uiso   1.00
Ce60   Ce    0.40353   0.42463   0.40523   0.00000  Uiso   1.00
Ce61   Ce    0.33612   0.33084   0.40894   0.00000  Uiso   1.00
C62    C     0.42057   0.30434   0.43014   0.00000  Uiso   1.00
C63    C     0.47940   0.44895   0.38267   0.00000  Uiso   1.00
C64    C     0.33847   0.43485   0.47562   0.00000  Uiso   1.00
C65    C     0.34127   0.44949   0.34110   0.00000  Uiso   1.00
C66    C     0.26858   0.25697   0.41015   0.00000  Uiso   1.00
C67    C     0.39343   0.32066   0.33139   0.00000  Uiso   1.00
O68    O     0.39092   0.27558   0.40732   0.00000  Uiso   1.00
O69    O     0.40719   0.35053   0.44665   0.00000  Uiso   1.00
O70    O     0.47164   0.46526   0.42022   0.00000  Uiso   1.00
O71    O     0.45125   0.41283   0.36046   0.00000  Uiso   1.00
O72    O     0.37034   0.45691   0.46003   0.00000  Uiso   1.00
O73    O     0.31820   0.38855   0.46082   0.00000  Uiso   1.00
O74    O     0.37166   0.48274   0.35715   0.00000  Uiso   1.00
O75    O     0.34267   0.39818   0.35963   0.00000  Uiso   1.00
O76    O     0.26901   0.29165   0.38003   0.00000  Uiso   1.00
O77    O     0.30417   0.25698   0.43812   0.00000  Uiso   1.00
O78    O     0.36271   0.29707   0.34891   0.00000  Uiso   1.00
O79    O     0.41483   0.36694   0.34690   0.00000  Uiso   1.00
Ni80   Ni    0.38413   0.75151   1.00367   0.00000  Uiso   1.00
C81    C     0.53125   0.78820   0.03997   0.00000  Uiso   1.00
C82    C     0.51209   0.73764   0.04923   0.00000  Uiso   1.00
C83    C     0.46742   0.72650   0.03762   0.00000  Uiso   1.00
C84    C     0.46089   0.81335   1.00791   0.00000  Uiso   1.00
C85    C     0.50512   0.82607   0.01886   0.00000  Uiso   1.00
H86    H     0.24049   0.70135   0.03546   0.00000  Uiso   1.00
H87    H     0.24558   0.73823   0.89852   0.00000  Uiso   1.00
H88    H     0.32413   0.75668   0.92110   0.00000  Uiso   1.00
H89    H     0.31936   0.72086   0.05512   0.00000  Uiso   1.00
N90    N     0.32524   0.73950   0.98903   0.00000  Uiso   1.00
N91    N     0.44295   0.76450   0.01767   0.00000  Uiso   1.00
H92    H     0.53122   0.70767   0.06600   0.00000  Uiso   1.00
H93    H     0.45218   0.68797   0.04507   0.00000  Uiso   1.00
H94    H     0.44061   0.84279   0.99215   0.00000  Uiso   1.00
H95    H     0.51868   0.86563   1.01154   0.00000  Uiso   1.00
C96    C     0.23670   0.71880   0.96534   0.00000  Uiso   1.00
C97    C     0.26082   0.73501   0.93328   0.00000  Uiso   1.00
C98    C     0.30531   0.74517   0.94591   0.00000  Uiso   1.00
C99    C     0.30261   0.72504   0.02107   0.00000  Uiso   1.00
C100   C     0.25797   0.71442   1.00989   0.00000  Uiso   1.00
Ni101  Ni    0.46118   0.16729   0.21192   0.00000  Uiso   1.00
C102   C     0.40734   0.29032   0.29535   0.00000  Uiso   1.00
C103   C     0.38018   0.24733   0.27106   0.00000  Uiso   1.00
C104   C     0.39619   0.21302   0.24272   0.00000  Uiso   1.00
C105   C     0.46423   0.26409   0.26000   0.00000  Uiso   1.00
C106   C     0.44949   0.29967   0.28845   0.00000  Uiso   1.00
H107   H     0.57792   1.05575   0.21039   0.00000  Uiso   1.00
H108   H     0.46636   0.01452   0.10517   0.00000  Uiso   1.00
H109   H     0.43224   0.08957   0.13514   0.00000  Uiso   1.00
H110   H     0.54191   0.12926   0.23719   0.00000  Uiso   1.00
N111   N     0.48580   0.11300   0.18721   0.00000  Uiso   1.00
N112   N     0.43783   0.22110   0.23877   0.00000  Uiso   1.00
H113   H     0.34749   0.23886   0.27549   0.00000  Uiso   1.00
H114   H     0.37614   0.17815   0.22575   0.00000  Uiso   1.00
H115   H     0.49745   0.26890   0.25685   0.00000  Uiso   1.00
H116   H     0.47168   0.33175   0.30710   0.00000  Uiso   1.00
C117   C     0.52503   1.02936   0.15532   0.00000  Uiso   1.00
C118   C     0.48358   0.03927   0.13409   0.00000  Uiso   1.00
C119   C     0.46428   0.08170   0.15089   0.00000  Uiso   1.00
C120   C     0.52578   0.10392   0.20823   0.00000  Uiso   1.00
C121   C     0.54597   1.06210   0.19296   0.00000  Uiso   1.00
Ni122  Ni    0.60575   0.25076   0.47592   0.00000  Uiso   1.00
C123   C     0.73943   0.19893   0.53542   0.00000  Uiso   1.00
C124   C     0.71597   0.22654   0.56158   0.00000  Uiso   1.00
C125   C     0.67679   0.24389   0.54181   0.00000  Uiso   1.00
C126   C     0.68373   0.20968   0.47046   0.00000  Uiso   1.00
C127   C     0.72360   0.19191   0.48896   0.00000  Uiso   1.00
H128   H     0.49197   0.37226   0.46422   0.00000  Uiso   1.00
H129   H     0.45089   0.20685   0.41639   0.00000  Uiso   1.00
H130   H     0.52663   0.18702   0.43420   0.00000  Uiso   1.00
H131   H     0.56677   0.34937   0.47988   0.00000  Uiso   1.00
N132   N     0.55027   0.26760   0.45670   0.00000  Uiso   1.00
N133   N     0.66094   0.23410   0.49728   0.00000  Uiso   1.00
H134   H     0.72717   0.23309   0.59746   0.00000  Uiso   1.00
H135   H     0.65809   0.26355   0.56232   0.00000  Uiso   1.00
H136   H     0.67038   0.20238   0.43506   0.00000  Uiso   1.00
H137   H     0.74059   0.17043   0.46771   0.00000  Uiso   1.00
C138   C     0.46552   0.29140   0.43866   0.00000  Uiso   1.00
C139   C     0.47581   0.23906   0.42950   0.00000  Uiso   1.00
C140   C     0.51867   0.22783   0.43924   0.00000  Uiso   1.00
C141   C     0.54114   0.31883   0.46507   0.00000  Uiso   1.00
C142   C     0.49875   0.33158   0.45645   0.00000  Uiso   1.00
Ni143  Ni    0.71746   1.06247   0.89058   0.00000  Uiso   1.00
C144   C     0.76177   0.09124   0.75673   0.00000  Uiso   1.00
C145   C     0.73775   0.04280   0.76300   0.00000  Uiso   1.00
C146   C     0.72305   1.03612   0.80307   0.00000  Uiso   1.00
C147   C     0.75421   0.12406   0.83027   0.00000  Uiso   1.00
C148   C     0.76931   0.13259   0.79062   0.00000  Uiso   1.00
H149   H     0.74530   0.98012   0.03563   0.00000  Uiso   1.00
H150   H     0.61763   0.02776  -0.00661   0.00000  Uiso   1.00
H151   H     0.64054   0.06844   0.92751   0.00000  Uiso   1.00
H152   H     0.76526   1.02177   0.96931   0.00000  Uiso   1.00
N153   N     0.70382   1.04666   0.94529   0.00000  Uiso   1.00
N154   N     0.73187   0.07624   0.83585   0.00000  Uiso   1.00
H155   H     0.73140   1.00991   0.73776   0.00000  Uiso   1.00
H156   H     0.70579   0.99815   0.80871   0.00000  Uiso   1.00
H157   H     0.76152   0.15487   0.85722   0.00000  Uiso   1.00
H158   H     0.78811   0.17033   0.78727   0.00000  Uiso   1.00
C159   C     0.67963   1.00015   0.01967   0.00000  Uiso   1.00
C160   C     0.65066   1.02773  -0.01013   0.00000  Uiso   1.00
C161   C     0.66348   1.05058   0.95236   0.00000  Uiso   1.00
C162   C     0.73343   1.02441   0.97577   0.00000  Uiso   1.00
C163   C     0.72198   1.00083   0.01333   0.00000  Uiso   1.00
Ni164  Ni    0.74852   0.98051   0.36874   0.00000  Uiso   1.00
C165   C     0.77894   0.02465   0.52049   0.00000  Uiso   1.00
C166   C     0.80808  -0.00180   0.50086   0.00000  Uiso   1.00
C167   C     0.79797  -0.01652   0.45508   0.00000  Uiso   1.00
C168   C     0.73104   0.01951   0.44822   0.00000  Uiso   1.00
C169   C     0.73972   0.03463   0.49387   0.00000  Uiso   1.00
H170   H     0.69728   1.03557   0.21701   0.00000  Uiso   1.00
H171   H     0.70123   0.86350   0.23183   0.00000  Uiso   1.00
H172   H     0.73532   0.88234   0.31159   0.00000  Uiso   1.00
H173   H     0.73192   0.05067   0.29662   0.00000  Uiso   1.00
N174   N     0.73546   0.96736   0.30754   0.00000  Uiso   1.00
N175   N     0.76019  -0.00503   0.42979   0.00000  Uiso   1.00
H176   H     0.83884  -0.00963   0.52043   0.00000  Uiso   1.00
H177   H     0.82066  -0.03578   0.43946   0.00000  Uiso   1.00
H178   H     0.70151   1.02875   0.42708   0.00000  Uiso   1.00
H179   H     0.71696   0.05605   0.50774   0.00000  Uiso   1.00
C180   C     0.69690   0.94821   0.21805   0.00000  Uiso   1.00
C181   C     0.70966   0.90505   0.24462   0.00000  Uiso   1.00
C182   C     0.72875   0.91560   0.28988   0.00000  Uiso   1.00
C183   C     0.72673   1.01006   0.28148   0.00000  Uiso   1.00
C184   C     0.70724   1.00137   0.23638   0.00000  Uiso   1.00
Ni185  Ni    0.29715   0.53218   0.64562   0.00000  Uiso   1.00
C186   C     0.32582   0.46313   0.51371   0.00000  Uiso   1.00
C187   C     0.28833   0.44464   0.52852   0.00000  Uiso   1.00
C188   C     0.27960   0.46802   0.56754   0.00000  Uiso   1.00
C189   C     0.34308   0.52825   0.57705   0.00000  Uiso   1.00
C190   C     0.35293   0.50632   0.53801   0.00000  Uiso   1.00
H191   H     0.24343   0.49703   0.78224   0.00000  Uiso   1.00
H192   H     0.27729   0.66575   0.76146   0.00000  Uiso   1.00
H193   H     0.30172   0.63758   0.69268   0.00000  Uiso   1.00
H194   H     0.26867   0.47274   0.71376   0.00000  Uiso   1.00
N195   N     0.28615   0.55391   0.70015   0.00000  Uiso   1.00
N196   N     0.30722   0.50833   0.59125   0.00000  Uiso   1.00
H197   H     0.26656   0.41151   0.51086   0.00000  Uiso   1.00
H198   H     0.25138   0.45289   0.57980   0.00000  Uiso   1.00
H199   H     0.36463   0.56007   0.59678   0.00000  Uiso   1.00
H200   H     0.38238   0.52149   0.52805   0.00000  Uiso   1.00
C201   C     0.25845   0.58341   0.77731   0.00000  Uiso   1.00
C202   C     0.27620   0.62309   0.75236   0.00000  Uiso   1.00
C203   C     0.28983   0.60728   0.71333   0.00000  Uiso   1.00
C204   C     0.27125   0.51480   0.72514   0.00000  Uiso   1.00
C205   C     0.25707   0.52870   0.76392   0.00000  Uiso   1.00
Ni206  Ni    0.25824   0.49506   0.15189   0.00000  Uiso   1.00
C207   C     0.20700   0.55574   1.01179   0.00000  Uiso   1.00
C208   C     0.23033   0.51034   1.01440   0.00000  Uiso   1.00
C209   C     0.24590   0.49054   0.05685   0.00000  Uiso   1.00
C210   C     0.21703   0.56026   0.09253   0.00000  Uiso   1.00
C211   C     0.20104   0.58090   0.05161   0.00000  Uiso   1.00
H212   H     0.29894   0.37431   0.27676   0.00000  Uiso   1.00
H213   H     0.32152   0.54673   0.30799   0.00000  Uiso   1.00
H214   H     0.28911   0.56200   0.22957   0.00000  Uiso   1.00
H215   H     0.26726   0.39349   0.19853   0.00000  Uiso   1.00
N216   N     0.27764   0.47862   0.21045   0.00000  Uiso   1.00
N217   N     0.23842   0.51563   0.09459   0.00000  Uiso   1.00
H218   H     0.23548   0.48997   0.98432   0.00000  Uiso   1.00
H219   H     0.26388   0.45559   0.05958   0.00000  Uiso   1.00
H220   H     0.21265   0.57998   0.12317   0.00000  Uiso   1.00
H221   H     0.18408   0.61670   0.05126   0.00000  Uiso   1.00
C222   C     0.31277   0.45919   0.29853   0.00000  Uiso   1.00
C223   C     0.30900   0.51231   0.28499   0.00000  Uiso   1.00
C224   C     0.29108   0.52109   0.24058   0.00000  Uiso   1.00
C225   C     0.27866   0.42655   0.22311   0.00000  Uiso   1.00
C226   C     0.29607   0.41583   0.26753   0.00000  Uiso   1.00
Ni227  Ni    0.09383   0.17343   0.44186   0.00000  Uiso   1.00
C228   C     0.22845   0.22407   0.41424   0.00000  Uiso   1.00
C229   C     0.22420   0.20001   0.45460   0.00000  Uiso   1.00
C230   C     0.18332   0.18109   0.46143   0.00000  Uiso   1.00
C231   C     0.15165   0.20495   0.38847   0.00000  Uiso   1.00
C232   C     0.19171   0.22449   0.38034   0.00000  Uiso   1.00
H233   H     0.97254   0.23707   0.49773   0.00000  Uiso   1.00
H234   H     0.96294   0.06512   0.46603   0.00000  Uiso   1.00
H235   H     0.03205   0.07888   0.44107   0.00000  Uiso   1.00
H236   H     0.04120   0.24702   0.47227   0.00000  Uiso   1.00
N237   N     0.03971   0.16364   0.45521   0.00000  Uiso   1.00
N238   N     0.14800   0.18526   0.42892   0.00000  Uiso   1.00
H239   H     0.25166   0.19936   0.48171   0.00000  Uiso   1.00
H240   H     0.17958   0.16605   0.49362   0.00000  Uiso   1.00
H241   H     0.12307   0.20852   0.36345   0.00000  Uiso   1.00
H242   H     0.19353   0.24280   0.34879   0.00000  Uiso   1.00
C243   C     0.96194   0.15018   0.48366   0.00000  Uiso   1.00
C244   C     0.97875   0.10572   0.46639   0.00000  Uiso   1.00
C245   C     0.01805   0.11336   0.45243   0.00000  Uiso   1.00
C246   C     0.02314   0.20761   0.46991   0.00000  Uiso   1.00
C247   C     0.98412   0.20183   0.48423   0.00000  Uiso   1.00
Ni248  Ni    1.02564   0.88440   0.72611   0.00000  Uiso   1.00
C249   C     0.94741   0.02445   0.67411   0.00000  Uiso   1.00
C250   C     0.97561   0.00417   0.64908   0.00000  Uiso   1.00
C251   C     1.00109   0.96387   0.66633   0.00000  Uiso   1.00
C252   C     0.97369   0.96555   0.73322   0.00000  Uiso   1.00
C253   C     0.94752   1.00563   0.71723   0.00000  Uiso   1.00
H254   H     0.14691   0.77663   0.77836   0.00000  Uiso   1.00
H255   H     1.02136   0.70907   0.79352   0.00000  Uiso   1.00
H256   H     0.99074   0.78605   0.75441   0.00000  Uiso   1.00
H257   H     0.11328   0.85301   0.73949   0.00000  Uiso   1.00
N258   N     0.05059   0.82321   0.74581   0.00000  Uiso   1.00
N259   N     0.99893   0.94470   0.70731   0.00000  Uiso   1.00
H260   H    -0.02361   0.01716   0.61553   0.00000  Uiso   1.00
H261   H     0.02120   0.94623   0.64628   0.00000  Uiso   1.00
H262   H     0.97248   0.94928   0.76564   0.00000  Uiso   1.00
H263   H     0.92637   1.02008   0.73768   0.00000  Uiso   1.00
C264   C     0.08668   0.73671   0.78908   0.00000  Uiso   1.00
C265   C     1.04223   0.73919   0.78092   0.00000  Uiso   1.00
C266   C     1.02479   0.78284   0.75899   0.00000  Uiso   1.00
C267   C     0.09353   0.82039   0.75059   0.00000  Uiso   1.00
C268   C     0.11243   0.77682   0.77214   0.00000  Uiso   1.00
Ni269  Ni    0.97373   0.38563   0.76172   0.00000  Uiso   1.00
C270   C     0.06447   0.53373   0.82276   0.00000  Uiso   1.00
C271   C     0.05070   0.49506   0.85099   0.00000  Uiso   1.00
C272   C     0.01966   0.45279   0.83267   0.00000  Uiso   1.00
C273   C     0.01324   0.48897   0.76061   0.00000  Uiso   1.00
C274   C     0.04427   0.53173   0.77742   0.00000  Uiso   1.00
H275   H     0.97657   0.20435   0.69785   0.00000  Uiso   1.00
H276   H     0.85493   0.27113   0.66615   0.00000  Uiso   1.00
H277   H     0.88625   0.35085   0.71581   0.00000  Uiso   1.00
H278   H     1.00500   0.28469   0.74746   0.00000  Uiso   1.00
N279   N     0.94691   0.32116   0.73426   0.00000  Uiso   1.00
N280   N     0.00264   0.44971   0.78796   0.00000  Uiso   1.00
H281   H     0.06629   0.49490   0.88597   0.00000  Uiso   1.00
H282   H     0.01173   0.42018   0.85340   0.00000  Uiso   1.00
H283   H     0.00006   0.48475   0.72501   0.00000  Uiso   1.00
H284   H     0.05464   0.56049   0.75458   0.00000  Uiso   1.00
C285   C     0.91345   0.23136   0.67818   0.00000  Uiso   1.00
C286   C     0.88748   0.27218   0.68485   0.00000  Uiso   1.00
C287   C     0.90513   0.31744   0.71297   0.00000  Uiso   1.00
C288   C     0.97176   0.28038   0.73058   0.00000  Uiso   1.00
C289   C     0.95562   0.23494   0.70242   0.00000  Uiso   1.00
Ni290  Ni    0.88423   0.70119   0.03010   0.00000  Uiso   1.00
C291   C     0.76016   0.75383   0.06389   0.00000  Uiso   1.00
C292   C     0.76114   0.73624   0.01995   0.00000  Uiso   1.00
C293   C     0.79843   0.71740   0.01078   0.00000  Uiso   1.00
C294   C     0.83244   0.73004   0.08743   0.00000  Uiso   1.00
C295   C     0.79594   0.74924   0.09809   0.00000  Uiso   1.00
H296   H     0.98045   0.58758   0.97233   0.00000  Uiso   1.00
H297   H     0.02756   0.75626   0.00232   0.00000  Uiso   1.00
H298   H     0.96102   0.76966   0.02906   0.00000  Uiso   1.00
H299   H     0.91514   0.60483   0.99967   0.00000  Uiso   1.00
N300   N     0.93531   0.68790   1.01547   0.00000  Uiso   1.00
N301   N     0.83324   0.71574   0.04426   0.00000  Uiso   1.00
H302   H     0.73425   0.73950  -0.00732   0.00000  Uiso   1.00
H303   H     0.80033   0.70627  -0.02334   0.00000  Uiso   1.00
H304   H     0.86086   0.72865   0.11318   0.00000  Uiso   1.00
H305   H     0.79638   0.76247   0.13238   0.00000  Uiso   1.00
C306   C     0.00904   0.67078   0.98483   0.00000  Uiso   1.00
C307   C     0.00373   0.72214   1.00198   0.00000  Uiso   1.00
C308   C     0.96620   0.72987   0.01714   0.00000  Uiso   1.00
C309   C     0.94036   0.63734   1.00063   0.00000  Uiso   1.00
C310   C     0.97731   0.62779   0.98513   0.00000  Uiso   1.00
Ni311  Ni    0.55975   0.61307   0.27826   0.00000  Uiso   1.00
C312   C     0.58780   0.75132   0.18616   0.00000  Uiso   1.00
C313   C     0.56401   0.76019   0.21937   0.00000  Uiso   1.00
C314   C     0.55593   0.71824   0.24753   0.00000  Uiso   1.00
C315   C     0.59358   0.65964   0.21048   0.00000  Uiso   1.00
C316   C     0.60239   0.70006   0.18189   0.00000  Uiso   1.00
H317   H     0.53587   0.53541   0.41857   0.00000  Uiso   1.00
H318   H     0.49410   0.43209   0.29840   0.00000  Uiso   1.00
H319   H     0.52597   0.50254   0.25625   0.00000  Uiso   1.00
H320   H     0.56678   0.60363   0.37363   0.00000  Uiso   1.00
N321   N     0.54791   0.55615   0.31302   0.00000  Uiso   1.00
N322   N     0.57099   0.66934   0.24267   0.00000  Uiso   1.00
H323   H     0.55246   0.79915   0.22394   0.00000  Uiso   1.00
H324   H     0.53758   0.72463   0.27319   0.00000  Uiso   1.00
H325   H     0.60461   0.62016   0.20702   0.00000  Uiso   1.00
H326   H     0.62062   0.69102   0.15664   0.00000  Uiso   1.00
C327   C     0.51259   0.47790   0.36213   0.00000  Uiso   1.00
C328   C     0.51203   0.46789   0.31638   0.00000  Uiso   1.00
C329   C     0.52977   0.50803   0.29225   0.00000  Uiso   1.00
C330   C     0.55265   0.56476   0.35808   0.00000  Uiso   1.00
C331   C     0.53536   0.52572   0.38354   0.00000  Uiso   1.00
loop_
_geom_bond_atom_site_label_1
_geom_bond_atom_site_label_2
_geom_bond_distance
_geom_bond_site_symmetry_2
_ccdc_geom_bond_type
Ce0    O9      2.241   .     S
Ce0    O10     2.295   .     S
Ce0    O11     2.264   .     S
Ce0    O12     2.364   .     S
Ce0    O14     2.327   .     S
Ce0    O15     2.258   .     S
Ce0    O19     2.360   .     S
Ce1    O8      2.341   .     S
Ce1    O9      2.274   .     S
Ce1    O13     2.289   .     S
Ce1    O15     2.246   .     S
Ce1    O16     2.260   .     S
Ce1    O17     2.277   .     S
Ce1    O18     2.298   .     S
C2     O8      1.206   .     D
C2     O9      1.364   .     S
C2     C96     1.476   .     S
C3     O10     1.277   .     A
C3     O11     1.272   .     A
C3     C201    1.473   .     S
C4     O12     1.309   .     A
C4     O13     1.298   .     A
C4     C264    1.476   .     S
C5     O14     1.205   .     D
C5     O15     1.366   .     S
C5     C270    1.470   .     S
C6     O16     1.276   .     A
C6     O17     1.280   .     A
C6     C306    1.471   .     S
C7     O18     1.304   .     A
C7     O19     1.309   .     A
C7     C207    1.476   .     S
Ce20   O29     2.244   .     S
Ce20   O30     2.306   .     S
Ce20   O31     2.267   .     S
Ce20   O32     2.335   .     S
Ce20   O34     2.283   .     S
Ce20   O35     2.231   .     S
Ce20   O39     2.353   .     S
Ce21   O28     2.347   .     S
Ce21   O29     2.286   .     S
Ce21   O33     2.283   .     S
Ce21   O35     2.267   .     S
Ce21   O36     2.262   .     S
Ce21   O37     2.276   .     S
Ce21   O38     2.325   .     S
C22    O28     1.216   .     D
C22    O29     1.369   .     S
C22    C81     1.475   .     S
C23    O30     1.279   .     A
C23    O31     1.273   .     A
C23    C117    1.475   .     S
C24    O32     1.300   .     A
C24    O33     1.293   .     A
C24    C159    1.480   .     S
C25    O34     1.219   .     D
C25    O35     1.392   .     S
C25    C180    1.471   .     S
C26    O36     1.278   .     A
C26    O37     1.281   .     A
C26    C291    1.472   .     S
C27    O38     1.308   .     A
C27    O39     1.310   .     A
C27    C312    1.482   .     S
Ce40   O49     2.241   .     S
Ce40   O50     2.291   .     S
Ce40   O51     2.278   .     S
Ce40   O52     2.327   .     S
Ce40   O54     2.332   .     S
Ce40   O55     2.268   .     S
Ce40   O59     2.354   .     S
Ce41   O48     2.348   .     S
Ce41   O49     2.272   .     S
Ce41   O53     2.322   .     S
Ce41   O55     2.251   .     S
Ce41   O56     2.277   .     S
Ce41   O57     2.287   .     S
Ce41   O58     2.318   .     S
C42    O48     1.205   .     D
C42    O49     1.357   .     S
C42    C165    1.472   .     S
C43    O50     1.277   .     A
C43    O51     1.275   .     A
C43    C243    1.481   .     S
C44    O52     1.303   .     A
C44    O53     1.302   .     A
C44    C249    1.483   .     S
C45    O54     1.203   .     D
C45    O55     1.359   .     S
C45    C285    1.469   .     S
C46    O56     1.277   .     A
C46    O57     1.280   .     A
C46    C144    1.480   .     S
C47    O58     1.308   .     A
C47    O59     1.309   .     A
C47    C123    1.481   .     S
Ce60   O69     2.257   .     S
Ce60   O70     2.268   .     S
Ce60   O71     2.270   .     S
Ce60   O72     2.310   .     S
Ce60   O74     2.251   .     S
Ce60   O75     2.191   .     S
Ce60   O79     2.355   .     S
Ce61   O68     2.333   .     S
Ce61   O69     2.338   .     S
Ce61   O73     2.294   .     S
Ce61   O75     2.298   .     S
Ce61   O76     2.270   .     S
Ce61   O77     2.298   .     S
Ce61   O78     2.330   .     S
C62    O68     1.216   .     D
C62    O69     1.377   .     S
C62    C138    1.478   .     S
C63    O70     1.280   .     A
C63    O71     1.284   .     A
C63    C327    1.475   .     S
C64    O72     1.290   .     A
C64    O73     1.289   .     A
C64    C186    1.481   .     S
C65    O74     1.227   .     D
C65    O75     1.407   .     S
C65    C222    1.471   .     S
C66    O76     1.275   .     A
C66    O77     1.282   .     A
C66    C228    1.484   .     S
C67    O78     1.306   .     A
C67    O79     1.307   .     A
C67    C102    1.476   .     S
Ni80   N90     1.843   .     S
Ni80   N91     1.842   1_556 S
C81    C82     1.404   .     A
C81    C85     1.402   .     A
C82    C83     1.402   .     A
C82    H92     1.083   .     S
C83    N91     1.362   .     A
C83    H93     1.082   .     S
C84    H94     1.082   .     S
C84    C85     1.392   1_556 A
C84    N91     1.357   1_556 A
C85    C84     1.392   1_554 A
C85    H95     1.082   1_554 S
H86    C100    1.083   1_554 S
H87    C97     1.083   .     S
H88    C98     1.082   .     S
H89    C99     1.082   .     S
N90    C98     1.360   .     A
N90    C99     1.360   1_556 A
N91    Ni80    1.842   1_554 S
N91    C84     1.357   1_554 A
H95    C85     1.082   1_556 S
C96    C97     1.402   .     A
C96    C100    1.405   .     A
C97    C98     1.397   .     A
C99    N90     1.360   1_554 A
C99    C100    1.400   1_554 A
C100   H86     1.083   1_556 S
C100   C99     1.400   1_556 A
Ni101  N111    1.839   .     S
Ni101  N112    1.838   .     S
C102   C103    1.404   .     A
C102   C106    1.404   .     A
C103   C104    1.395   .     A
C103   H113    1.083   .     S
C104   N112    1.358   .     A
C104   H114    1.081   .     S
C105   C106    1.396   .     A
C105   N112    1.360   .     A
C105   H115    1.082   .     S
C106   H116    1.083   .     S
H107   C121    1.083   .     S
H108   C118    1.083   .     S
H109   C119    1.081   .     S
H110   C120    1.082   .     S
N111   C119    1.362   .     A
N111   C120    1.356   .     A
C117   C121    1.403   .     A
C117   C118    1.404   1_565 A
C118   C119    1.403   .     A
C118   C117    1.404   1_545 A
C120   C121    1.389   1_545 A
C121   C120    1.389   1_565 A
Ni122  N132    1.848   .     S
Ni122  N133    1.848   .     S
C123   C124    1.403   .     A
C123   C127    1.406   .     A
C124   C125    1.393   .     A
C124   H134    1.083   .     S
C125   N133    1.358   .     A
C125   H135    1.082   .     S
C126   C127    1.406   .     A
C126   N133    1.362   .     A
C126   H136    1.082   .     S
C127   H137    1.082   .     S
H128   C142    1.082   .     S
H129   C139    1.083   .     S
H130   C140    1.082   .     S
H131   C141    1.082   .     S
N132   C140    1.361   .     A
N132   C141    1.360   .     A
C138   C139    1.404   .     A
C138   C142    1.401   .     A
C139   C140    1.401   .     A
C141   C142    1.398   .     A
Ni143  N153    1.845   .     S
Ni143  N154    1.845   1_565 S
C144   C145    1.403   .     A
C144   C148    1.405   .     A
C145   C146    1.399   1_545 A
C145   H155    1.083   1_545 S
C146   H156    1.082   .     S
C146   C145    1.399   1_565 A
C146   N154    1.360   1_565 A
C147   C148    1.399   .     A
C147   N154    1.359   .     A
C147   H157    1.082   .     S
C148   H158    1.083   .     S
H149   C163    1.084   .     S
H150   C160    1.083   1_545 S
H151   C161    1.081   1_545 S
H152   C162    1.082   .     S
N153   C161    1.361   .     A
N153   C162    1.358   .     A
N154   Ni143   1.845   1_545 S
N154   C146    1.360   1_545 A
H155   C145    1.083   1_565 S
C159   C160    1.405   .     A
C159   C163    1.404   .     A
C160   H150    1.083   1_565 S
C160   C161    1.402   1_554 A
C161   H151    1.081   1_565 S
C161   C160    1.402   1_556 A
C162   C163    1.394   1_556 A
C163   C162    1.394   1_554 A
Ni164  N174    1.841   .     S
Ni164  N175    1.841   1_565 S
C165   C166    1.404   .     A
C165   C169    1.401   .     A
C166   C167    1.398   .     A
C166   H176    1.084   .     S
C167   N175    1.359   .     A
C167   H177    1.082   .     S
C168   C169    1.396   .     A
C168   N175    1.360   .     A
C168   H178    1.082   1_545 S
C169   H179    1.083   .     S
H170   C184    1.083   .     S
H171   C181    1.083   .     S
H172   C182    1.082   .     S
H173   C183    1.082   1_545 S
N174   C182    1.361   .     A
N174   C183    1.358   .     A
N175   Ni164   1.841   1_545 S
H178   C168    1.082   1_565 S
C180   C181    1.403   .     A
C180   C184    1.403   .     A
C181   C182    1.400   .     A
C183   C184    1.394   .     A
C183   H173    1.082   1_565 S
Ni185  N195    1.840   .     S
Ni185  N196    1.840   .     S
C186   C187    1.404   .     A
C186   C190    1.407   .     A
C187   C188    1.396   .     A
C187   H197    1.083   .     S
C188   N196    1.359   .     A
C188   H198    1.082   .     S
C189   C190    1.397   .     A
C189   N196    1.358   .     A
C189   H199    1.082   .     S
C190   H200    1.083   .     S
H191   C205    1.083   .     S
H192   C202    1.083   .     S
H193   C203    1.082   .     S
H194   C204    1.081   .     S
N195   C203    1.361   .     A
N195   C204    1.357   .     A
C201   C202    1.404   .     A
C201   C205    1.401   .     A
C202   C203    1.402   .     A
C204   C205    1.391   .     A
Ni206  N216    1.839   .     S
Ni206  N217    1.838   .     S
C207   C208    1.405   .     A
C207   C211    1.403   1_556 A
C208   H218    1.082   .     S
C208   C209    1.410   1_556 A
C209   N217    1.365   .     A
C209   H219    1.081   .     S
C209   C208    1.410   1_554 A
C210   C211    1.382   .     A
C210   N217    1.352   .     A
C210   H220    1.081   .     S
C211   H221    1.083   .     S
C211   C207    1.403   1_554 A
H212   C226    1.083   .     S
H213   C223    1.084   .     S
H214   C224    1.081   .     S
H215   C225    1.082   .     S
N216   C224    1.359   .     A
N216   C225    1.360   .     A
C222   C223    1.401   .     A
C222   C226    1.405   .     A
C223   C224    1.393   .     A
C225   C226    1.401   .     A
Ni227  N237    1.850   .     S
Ni227  N238    1.850   .     S
C228   C229    1.405   .     A
C228   C232    1.405   .     A
C229   C230    1.403   .     A
C229   H239    1.083   .     S
C230   N238    1.363   .     A
C230   H240    1.082   .     S
C231   C232    1.397   .     A
C231   N238    1.359   .     A
C231   H241    1.082   .     S
C232   H242    1.083   .     S
H233   C247    1.083   .     S
H234   C244    1.083   .     S
H235   C245    1.082   .     S
H236   C246    1.081   .     S
N237   C245    1.361   .     A
N237   C246    1.360   .     A
C243   C244    1.405   .     A
C243   C247    1.403   .     A
C244   C245    1.402   1_655 A
C245   C244    1.402   1_455 A
C246   C247    1.397   1_455 A
C247   C246    1.397   1_655 A
Ni248  N259    1.842   .     S
Ni248  N258    1.842   1_655 S
C249   C250    1.408   .     A
C249   C253    1.404   1_545 A
C250   C251    1.398   1_545 A
C250   H260    1.083   1_655 S
C251   N259    1.359   .     A
C251   C250    1.398   1_565 A
C251   H261    1.082   1_655 S
C252   C253    1.397   .     A
C252   N259    1.360   .     A
C252   H262    1.082   .     S
C253   H263    1.083   .     S
C253   C249    1.404   1_565 A
H254   C268    1.083   .     S
H255   C265    1.083   .     S
H256   C266    1.082   .     S
H257   C267    1.082   .     S
N258   C267    1.362   .     A
N258   Ni248   1.842   1_455 S
N258   C266    1.357   1_455 A
H260   C250    1.083   1_455 S
H261   C251    1.082   1_455 S
C264   C268    1.405   .     A
C264   C265    1.403   1_455 A
C265   C266    1.392   .     A
C265   C264    1.403   1_655 A
C266   N258    1.357   1_655 A
C267   C268    1.404   .     A
Ni269  N279    1.840   .     S
Ni269  N280    1.841   1_655 S
C270   C271    1.402   .     A
C270   C274    1.402   .     A
C271   C272    1.398   .     A
C271   H281    1.084   .     S
C272   N280    1.360   .     A
C272   H282    1.081   .     S
C273   C274    1.395   .     A
C273   N280    1.360   .     A
C273   H283    1.082   .     S
C274   H284    1.084   .     S
H275   C289    1.082   .     S
H276   C286    1.082   .     S
H277   C287    1.082   .     S
H278   C288    1.081   .     S
N279   C287    1.360   .     A
N279   C288    1.360   .     A
N280   Ni269   1.841   1_455 S
C285   C286    1.404   .     A
C285   C289    1.399   .     A
C286   C287    1.398   .     A
C288   C289    1.392   .     A
Ni290  N301    1.832   .     S
Ni290  N300    1.832   1_554 S
C291   C292    1.403   .     A
C291   C295    1.404   .     A
C292   C293    1.396   .     A
C292   H302    1.083   .     S
C293   N301    1.359   .     A
C293   H303    1.082   .     S
C294   C295    1.393   .     A
C294   N301    1.358   .     A
C294   H304    1.082   .     S
C295   H305    1.083   .     S
H296   C310    1.082   .     S
H297   C307    1.083   1_554 S
H298   C308    1.082   .     S
H299   C309    1.082   .     S
N300   C309    1.357   .     A
N300   Ni290   1.832   1_556 S
N300   C308    1.359   1_556 A
C306   C307    1.402   .     A
C306   C310    1.403   1_455 A
C307   H297    1.083   1_556 S
C307   C308    1.396   1_456 A
C308   N300    1.359   1_554 A
C308   C307    1.396   1_654 A
C309   C310    1.393   .     A
C310   C306    1.403   1_655 A
Ni311  N321    1.842   .     S
Ni311  N322    1.842   .     S
C312   C313    1.404   .     A
C312   C316    1.407   .     A
C313   C314    1.403   .     A
C313   H323    1.082   .     S
C314   N322    1.362   .     A
C314   H324    1.082   .     S
C315   C316    1.390   .     A
C315   N322    1.356   .     A
C315   H325    1.082   .     S
C316   H326    1.083   .     S
H317   C331    1.083   .     S
H318   C328    1.083   .     S
H319   C329    1.082   .     S
H320   C330    1.081   .     S
N321   C329    1.360   .     A
N321   C330    1.359   .     A
C327   C328    1.404   .     A
C327   C331    1.405   .     A
C328   C329    1.396   .     A
C330   C331    1.397   .     A
