data_lcy+N173+E9
_audit_creation_date              2025-01-21
_audit_creation_method            'Materials Studio'
_symmetry_space_group_name_H-M    'P1'
_symmetry_Int_Tables_number       1
_symmetry_cell_setting            triclinic
loop_
_symmetry_equiv_pos_as_xyz
  x,y,z
_cell_length_a                    32.1718
_cell_length_b                    32.8498
_cell_length_c                    32.8046
_cell_angle_alpha                 94.0990
_cell_angle_beta                  86.8480
_cell_angle_gamma                 96.5519
loop_
_atom_site_label
_atom_site_type_symbol
_atom_site_fract_x
_atom_site_fract_y
_atom_site_fract_z
_atom_site_U_iso_or_equiv
_atom_site_adp_type
_atom_site_occupancy
Gd0    Gd    0.12774   0.63630   0.83513   0.00000  Uiso   1.00
Gd1    Gd    0.12907   0.59075   0.88498   0.00000  Uiso   1.00
O2     O     0.07548   0.55303   0.85738   0.00000  Uiso   1.00
O3     O     0.08119   0.58947   0.80333   0.00000  Uiso   1.00
O4     O     0.17856   0.60738   0.80119   0.00000  Uiso   1.00
O5     O     0.17260   0.55680   0.84233   0.00000  Uiso   1.00
O6     O     0.08142   0.68281   0.83921   0.00000  Uiso   1.00
O7     O     0.12258   0.68040   0.78682   0.00000  Uiso   1.00
O8     O     0.17646   0.68063   0.86591   0.00000  Uiso   1.00
C9     C     0.09281   0.69739   0.80501   0.00000  Uiso   1.00
O10    O     0.18303   0.63335   0.90902   0.00000  Uiso   1.00
O11    O     0.07692   0.66246   0.87523   0.00000  Uiso   1.00
C12    C     0.18809   0.57288   0.80988   0.00000  Uiso   1.00
O13    O     0.08461   0.62393   0.92612   0.00000  Uiso   1.00
O14    O     0.13308   0.54653   0.93308   0.00000  Uiso   1.00
O15    O     0.17711   0.59946   0.93308   0.00000  Uiso   1.00
C16    C     0.06539   0.55789   0.82150   0.00000  Uiso   1.00
C17    C     0.16403   0.56656   0.95008   0.00000  Uiso   1.00
C18    C     0.06701   0.65205   0.91160   0.00000  Uiso   1.00
C19    C     0.19507   0.66841   0.89526   0.00000  Uiso   1.00
Gd20   Gd    0.64430   0.84797   0.12088   0.00000  Uiso   1.00
Gd21   Gd    0.59523   0.89356   0.13260   0.00000  Uiso   1.00
O22    O     0.55848   0.85776   0.08467   0.00000  Uiso   1.00
O23    O     0.60204   0.81055   0.07648   0.00000  Uiso   1.00
O24    O     0.61300   0.81387   0.17173   0.00000  Uiso   1.00
O25    O     0.56223   0.85362   0.18021   0.00000  Uiso   1.00
O26    O     0.69854   0.85086   0.07363   0.00000  Uiso   1.00
O27    O     0.69073   0.80206   0.11254   0.00000  Uiso   1.00
O28    O     0.68470   0.88480   0.16673   0.00000  Uiso   1.00
C29    C     0.71263   0.81875   0.08406   0.00000  Uiso   1.00
O30    O     0.63605   0.92672   0.18068   0.00000  Uiso   1.00
O31    O     0.67293   0.88557   0.06988   0.00000  Uiso   1.00
C32    C     0.57896   0.82242   0.18963   0.00000  Uiso   1.00
O33    O     0.62793   0.93128   0.08363   0.00000  Uiso   1.00
O34    O     0.54688   0.93771   0.14150   0.00000  Uiso   1.00
O35    O     0.59966   0.94919   0.17760   0.00000  Uiso   1.00
C36    C     0.56838   0.82422   0.06768   0.00000  Uiso   1.00
C37    C     0.56552   0.96136   0.16826   0.00000  Uiso   1.00
C38    C     0.65817   0.91837   0.06159   0.00000  Uiso   1.00
C39    C     0.67115   0.91481   0.18816   0.00000  Uiso   1.00
Gd40   Gd    0.89081   0.09258   0.63220   0.00000  Uiso   1.00
Gd41   Gd    0.84626   0.14179   0.62983   0.00000  Uiso   1.00
O42    O     0.87848   0.17575   0.68172   0.00000  Uiso   1.00
O43    O     0.92693   0.13345   0.67915   0.00000  Uiso   1.00
O44    O     0.93061   0.12323   0.58457   0.00000  Uiso   1.00
O45    O     0.89347   0.17547   0.58678   0.00000  Uiso   1.00
O46    O     0.88348   0.04000   0.67395   0.00000  Uiso   1.00
O47    O     0.93615   0.04615   0.63286   0.00000  Uiso   1.00
O48    O     0.85649   0.05354   0.58329   0.00000  Uiso   1.00
C49    C     0.91694   0.02561   0.66038   0.00000  Uiso   1.00
O50    O     0.81721   0.10340   0.57697   0.00000  Uiso   1.00
O51    O     0.84771   0.06460   0.68095   0.00000  Uiso   1.00
C52    C     0.92623   0.15880   0.57442   0.00000  Uiso   1.00
O53    O     0.80180   0.10876   0.67509   0.00000  Uiso   1.00
O54    O     0.80289   0.19019   0.62750   0.00000  Uiso   1.00
O55    O     0.79568   0.13949   0.58428   0.00000  Uiso   1.00
C56    C     0.91295   0.16662   0.69320   0.00000  Uiso   1.00
C57    C     0.78270   0.17323   0.59780   0.00000  Uiso   1.00
C58    C     0.81312   0.07847   0.69231   0.00000  Uiso   1.00
C59    C     0.82853   0.06833   0.56473   0.00000  Uiso   1.00
Gd60   Gd    0.35154   0.38795   0.35510   0.00000  Uiso   1.00
Gd61   Gd    0.39631   0.38598   0.40644   0.00000  Uiso   1.00
O62    O     0.36721   0.43687   0.43963   0.00000  Uiso   1.00
O63    O     0.31782   0.43311   0.39540   0.00000  Uiso   1.00
O64    O     0.30989   0.33870   0.38224   0.00000  Uiso   1.00
O65    O     0.34679   0.34166   0.43688   0.00000  Uiso   1.00
O66    O     0.36161   0.43260   0.30547   0.00000  Uiso   1.00
O67    O     0.30673   0.39066   0.30619   0.00000  Uiso   1.00
O68    O     0.38336   0.34113   0.31586   0.00000  Uiso   1.00
C69    C     0.32760   0.41974   0.28856   0.00000  Uiso   1.00
O70    O     0.42252   0.33446   0.36751   0.00000  Uiso   1.00
O71    O     0.39638   0.43882   0.33134   0.00000  Uiso   1.00
C72    C     0.31337   0.32912   0.41838   0.00000  Uiso   1.00
O73    O     0.44274   0.43324   0.37724   0.00000  Uiso   1.00
O74    O     0.44016   0.38108   0.45639   0.00000  Uiso   1.00
O75    O     0.44316   0.34006   0.40392   0.00000  Uiso   1.00
C76    C     0.33309   0.44762   0.42907   0.00000  Uiso   1.00
C77    C     0.45754   0.35158   0.43869   0.00000  Uiso   1.00
C78    C     0.43120   0.45134   0.34735   0.00000  Uiso   1.00
C79    C     0.41113   0.32321   0.33127   0.00000  Uiso   1.00
C80    C     0.46871   0.77160   0.00015   0.00000  Uiso   1.00
N81    N     0.49055   0.80750   0.98978   0.00000  Uiso   1.00
N82    N     0.52473   0.82260   0.00929   0.00000  Uiso   1.00
C83    C     0.53898   0.80202   0.03925   0.00000  Uiso   1.00
N84    N     0.51769   0.76561   0.04904   0.00000  Uiso   1.00
N85    N     0.48325   0.75065   0.02977   0.00000  Uiso   1.00
C86    C     0.42761   0.75828   0.98327   0.00000  Uiso   1.00
N87    N     0.40157   0.72839   0.00095   0.00000  Uiso   1.00
N88    N     0.36308   0.71810  -0.01195   0.00000  Uiso   1.00
C89    C     0.34896   0.73731   0.95702   0.00000  Uiso   1.00
N90    N     0.37508   0.76707   0.93897   0.00000  Uiso   1.00
N91    N     0.41362   0.77758   0.95209   0.00000  Uiso   1.00
C92    C     0.30670   0.72417   0.94266   0.00000  Uiso   1.00
N93    N     0.29351   0.73680   0.90736   0.00000  Uiso   1.00
N94    N     0.25664   0.72098   0.89290   0.00000  Uiso   1.00
C95    C     0.23175   0.69213   0.91343   0.00000  Uiso   1.00
N96    N     0.24469   0.68040   0.94906   0.00000  Uiso   1.00
N97    N     0.28127   0.69617   0.96346   0.00000  Uiso   1.00
C98    C     0.46223   0.22125   0.27320   0.00000  Uiso   1.00
N99    N     0.47932   0.24152   0.30680   0.00000  Uiso   1.00
N100   N     0.46350   0.27451   0.32438   0.00000  Uiso   1.00
C101   C     0.43008   0.28882   0.30897   0.00000  Uiso   1.00
N102   N     0.41311   0.26885   0.27502   0.00000  Uiso   1.00
N103   N     0.42890   0.23563   0.25746   0.00000  Uiso   1.00
C104   C     0.47857   0.18328   0.25589   0.00000  Uiso   1.00
N105   N     0.45962   0.15995   0.22485   0.00000  Uiso   1.00
N106   N     0.47358   0.12457   0.21100   0.00000  Uiso   1.00
C107   C     0.50692   0.11121   0.22767   0.00000  Uiso   1.00
N108   N     0.52598   0.13470   0.25847   0.00000  Uiso   1.00
N109   N     0.51200   0.16998   0.27236   0.00000  Uiso   1.00
C110   C     0.52185   0.07181   0.21296   0.00000  Uiso   1.00
N111   N     0.55627   0.05925   0.22842   0.00000  Uiso   1.00
N112   N     0.57006   1.02378   0.21469   0.00000  Uiso   1.00
C113   C     0.54970   0.99946   0.18518   0.00000  Uiso   1.00
N114   N     0.51520   0.01189   0.16993   0.00000  Uiso   1.00
N115   N     0.50150   0.04737   0.18355   0.00000  Uiso   1.00
C116   C     0.68305   0.22387   0.55189   0.00000  Uiso   1.00
N117   N     0.70276   0.24194   0.58511   0.00000  Uiso   1.00
N118   N     0.73460   0.22571   0.59953   0.00000  Uiso   1.00
C119   C     0.74786   0.19081   0.58130   0.00000  Uiso   1.00
N120   N     0.72820   0.17264   0.54805   0.00000  Uiso   1.00
N121   N     0.69637   0.18896   0.53355   0.00000  Uiso   1.00
C122   C     0.64830   0.24215   0.53588   0.00000  Uiso   1.00
N123   N     0.63020   0.22572   0.50115   0.00000  Uiso   1.00
N124   N     0.59926   0.24290   0.48615   0.00000  Uiso   1.00
C125   C     0.58521   0.27700   0.50542   0.00000  Uiso   1.00
N126   N     0.60308   0.29327   0.54032   0.00000  Uiso   1.00
N127   N     0.63414   0.27618   0.55524   0.00000  Uiso   1.00
C128   C     0.55177   0.29627   0.48836   0.00000  Uiso   1.00
N129   N     0.53545   0.32856   0.50897   0.00000  Uiso   1.00
N130   N     0.50530   0.34625   0.49318   0.00000  Uiso   1.00
C131   C     0.49061   0.33235   0.45616   0.00000  Uiso   1.00
N132   N     0.50694   0.30013   0.43552   0.00000  Uiso   1.00
N133   N     0.53698   0.28237   0.45137   0.00000  Uiso   1.00
C134   C     0.75388   0.02973   0.79754   0.00000  Uiso   1.00
N135   N     0.74122   0.06406   0.78335   0.00000  Uiso   1.00
N136   N     0.75840   0.07891   0.74862   0.00000  Uiso   1.00
C137   C     0.78868   0.05979   0.72685   0.00000  Uiso   1.00
N138   N     0.80060   0.02520   0.74082   0.00000  Uiso   1.00
N139   N     0.78351   1.01043   0.77530   0.00000  Uiso   1.00
C140   C     0.73852   0.01461   0.83751   0.00000  Uiso   1.00
N141   N     0.75653   0.98377   0.85258   0.00000  Uiso   1.00
N142   N     0.74442   0.97042   0.88919   0.00000  Uiso   1.00
C143   C     0.71378   0.98735   0.91233   0.00000  Uiso   1.00
N144   N     0.69552   0.01815   0.89729   0.00000  Uiso   1.00
N145   N     0.70779   0.03167   0.86060   0.00000  Uiso   1.00
C146   C     0.70062   0.97171   0.95263   0.00000  Uiso   1.00
N147   N     0.66860   0.98637   0.97586   0.00000  Uiso   1.00
N148   N     0.65589   0.97044   0.01137   0.00000  Uiso   1.00
C149   C     0.67492   0.93948   0.02506   0.00000  Uiso   1.00
N150   N     0.70717   0.92521   1.00202   0.00000  Uiso   1.00
N151   N     0.71982   0.94107   0.96659   0.00000  Uiso   1.00
C152   C     0.78284   0.01599   0.45380   0.00000  Uiso   1.00
N153   N     0.76583   0.04804   0.47401   0.00000  Uiso   1.00
N154   N     0.77943   0.06340   0.51010   0.00000  Uiso   1.00
C155   C     0.81039   0.04715   0.52772   0.00000  Uiso   1.00
N156   N     0.82711   1.01459   0.50792   0.00000  Uiso   1.00
N157   N     0.81351   0.99921   0.47161   0.00000  Uiso   1.00
C158   C     0.76895   0.00147   0.41263   0.00000  Uiso   1.00
N159   N     0.78627   0.97071   0.39023   0.00000  Uiso   1.00
N160   N     0.77366   0.95879   0.35267   0.00000  Uiso   1.00
C161   C     0.74340   0.97726   0.33613   0.00000  Uiso   1.00
N162   N     0.72621   0.00794   0.35858   0.00000  Uiso   1.00
N163   N     0.73884   0.01988   0.39595   0.00000  Uiso   1.00
C164   C     0.72782   0.96337   0.29544   0.00000  Uiso   1.00
N165   N     0.69610   0.98107   0.28066   0.00000  Uiso   1.00
N166   N     0.67940   0.96670   0.24550   0.00000  Uiso   1.00
C167   C     0.69398   0.93427   0.22347   0.00000  Uiso   1.00
N168   N     0.72624   0.91700   0.23783   0.00000  Uiso   1.00
N169   N     0.74288   0.93130   0.27314   0.00000  Uiso   1.00
C170   C     0.28087   0.49937   0.53427   0.00000  Uiso   1.00
N171   N     0.31833   0.51608   0.51869   0.00000  Uiso   1.00
N172   N     0.33308   0.50279   0.48205   0.00000  Uiso   1.00
C173   C     0.31057   0.47295   0.45914   0.00000  Uiso   1.00
N174   N     0.27204   0.45780   0.47382   0.00000  Uiso   1.00
N175   N     0.25740   0.47081   0.51072   0.00000  Uiso   1.00
C176   C     0.26932   0.50776   0.57770   0.00000  Uiso   1.00
N177   N     0.23820   0.48359   0.59676   0.00000  Uiso   1.00
N178   N     0.23032   0.48905   0.63699   0.00000  Uiso   1.00
C179   C     0.25357   0.51858   0.65965   0.00000  Uiso   1.00
N180   N     0.28459   0.54275   0.64053   0.00000  Uiso   1.00
N181   N     0.29258   0.53718   0.60040   0.00000  Uiso   1.00
C182   C     0.24284   0.52721   0.70325   0.00000  Uiso   1.00
N183   N     0.26084   0.56180   0.72315   0.00000  Uiso   1.00
N184   N     0.24623   0.57399   0.76020   0.00000  Uiso   1.00
C185   C     0.21376   0.55160   0.77924   0.00000  Uiso   1.00
N186   N     0.19696   0.51599   0.76010   0.00000  Uiso   1.00
N187   N     0.21132   0.50393   0.72279   0.00000  Uiso   1.00
C188   C     0.21776   0.52703   0.05068   0.00000  Uiso   1.00
N189   N     0.23478   0.56182   0.03337   0.00000  Uiso   1.00
N190   N     0.21753   0.57469   1.00128   0.00000  Uiso   1.00
C191   C     0.18282   0.55316   0.98552   0.00000  Uiso   1.00
N192   N     0.16587   0.51853   1.00288   0.00000  Uiso   1.00
N193   N     0.18302   0.50574   0.03493   0.00000  Uiso   1.00
C194   C     0.23606   0.51210   0.08578   0.00000  Uiso   1.00
N195   N     0.21713   0.47802   0.10290   0.00000  Uiso   1.00
N196   N     0.23299   0.46392   0.13496   0.00000  Uiso   1.00
C197   C     0.26839   0.48333   0.15107   0.00000  Uiso   1.00
N198   N     0.28755   0.51744   0.13395   0.00000  Uiso   1.00
N199   N     0.27161   0.53162   0.10177   0.00000  Uiso   1.00
C200   C     0.28482   0.46727   0.18654   0.00000  Uiso   1.00
N201   N     0.32007   0.48569   0.20399   0.00000  Uiso   1.00
N202   N     0.33419   0.47050   0.23655   0.00000  Uiso   1.00
C203   C     0.31341   0.43651   0.25259   0.00000  Uiso   1.00
N204   N     0.27828   0.41824   0.23514   0.00000  Uiso   1.00
N205   N     0.26427   0.43332   0.20267   0.00000  Uiso   1.00
C206   C     0.19998   0.28158   0.47367   0.00000  Uiso   1.00
N207   N     0.20315   0.29115   0.43416   0.00000  Uiso   1.00
N208   N     0.24009   0.30382   0.41673   0.00000  Uiso   1.00
C209   C     0.27555   0.30774   0.43791   0.00000  Uiso   1.00
N210   N     0.27269   0.29789   0.47763   0.00000  Uiso   1.00
N211   N     0.23549   0.28442   0.49504   0.00000  Uiso   1.00
C212   C     0.15827   0.26868   0.49191   0.00000  Uiso   1.00
N213   N     0.15244   0.23849   0.51841   0.00000  Uiso   1.00
N214   N     0.11380   0.22353   0.53046   0.00000  Uiso   1.00
C215   C     0.07968   0.23857   0.51707   0.00000  Uiso   1.00
N216   N     0.08553   0.26946   0.49138   0.00000  Uiso   1.00
N217   N     0.12414   0.28393   0.47877   0.00000  Uiso   1.00
C218   C     0.03764   0.21858   0.52736   0.00000  Uiso   1.00
N219   N     1.00386   0.24000   0.53489   0.00000  Uiso   1.00
N220   N     0.96683   0.22105   0.54754   0.00000  Uiso   1.00
C221   C     0.96228   0.17990   0.55198   0.00000  Uiso   1.00
N222   N     0.99577   0.15869   0.54284   0.00000  Uiso   1.00
N223   N     0.03263   0.17756   0.53089   0.00000  Uiso   1.00
C224   C     0.96385   0.92297   0.70040   0.00000  Uiso   1.00
N225   N     0.98262   0.94277   0.66826   0.00000  Uiso   1.00
N226   N     0.96722   0.97530   0.65555   0.00000  Uiso   1.00
C227   C     0.93249  -0.01081   0.67442   0.00000  Uiso   1.00
N228   N     0.91338  -0.03077   0.70636   0.00000  Uiso   1.00
N229   N     0.92888   0.93667   0.71918   0.00000  Uiso   1.00
C230   C     0.98195   0.88813   0.71512   0.00000  Uiso   1.00
N231   N     0.96612   0.87073   0.74977   0.00000  Uiso   1.00
N232   N     0.98346   0.83982   0.76368   0.00000  Uiso   1.00
C233   C     0.01717   0.82520   0.74341   0.00000  Uiso   1.00
N234   N     0.03294   0.84255   0.70871   0.00000  Uiso   1.00
N235   N     0.01567   0.87352   0.69485   0.00000  Uiso   1.00
C236   C     0.03659   0.79163   0.75910   0.00000  Uiso   1.00
N237   N     0.06949   0.77610   0.73822   0.00000  Uiso   1.00
N238   N     0.08746   0.74591   0.75277   0.00000  Uiso   1.00
C239   C     0.07317   0.73033   0.78875   0.00000  Uiso   1.00
N240   N     0.04025   0.74577   0.80961   0.00000  Uiso   1.00
N241   N     0.02226   0.77590   0.79503   0.00000  Uiso   1.00
C242   C     0.00966   0.44547   0.77735   0.00000  Uiso   1.00
N243   N     0.03793   0.46780   0.75312   0.00000  Uiso   1.00
N244   N     0.05245   0.50630   0.76498   0.00000  Uiso   1.00
C245   C     0.03902   0.52388   0.80136   0.00000  Uiso   1.00
N246   N     0.00968   0.50193   0.82471   0.00000  Uiso   1.00
N247   N    -0.00506   0.46369   0.81277   0.00000  Uiso   1.00
C248   C     0.99861   0.40110   0.76826   0.00000  Uiso   1.00
N249   N     0.96916   0.37986   0.79214   0.00000  Uiso   1.00
N250   N     0.96061   0.33932   0.78581   0.00000  Uiso   1.00
C251   C     0.98173   0.31831   0.75584   0.00000  Uiso   1.00
N252   N     1.01141   0.33947   0.73208   0.00000  Uiso   1.00
N253   N     0.01985   0.38010   0.73830   0.00000  Uiso   1.00
C254   C     0.96925   0.27426   0.74648   0.00000  Uiso   1.00
N255   N     0.99055   0.25259   0.71710   0.00000  Uiso   1.00
N256   N     0.97484   0.21505   0.70347   0.00000  Uiso   1.00
C257   C     0.93737   0.19781   0.71876   0.00000  Uiso   1.00
N258   N     0.91697   0.21893   0.74920   0.00000  Uiso   1.00
N259   N     0.93284   0.25621   0.76315   0.00000  Uiso   1.00
C260   C     0.82269   0.77338   0.03674   0.00000  Uiso   1.00
N261   N     0.80967   0.80691   0.02141   0.00000  Uiso   1.00
N262   N     0.77432   0.82138   0.03604   0.00000  Uiso   1.00
C263   C     0.75073   0.80264   0.06636   0.00000  Uiso   1.00
N264   N     0.76365   0.76905   0.08145   0.00000  Uiso   1.00
N265   N     0.79895   0.75467   0.06692   0.00000  Uiso   1.00
C266   C     0.86167   0.75736   1.02101   0.00000  Uiso   1.00
N267   N     0.87498   0.72452   1.03734   0.00000  Uiso   1.00
N268   N     0.91000   0.70950   1.02271   0.00000  Uiso   1.00
C269   C     0.93298   0.72686   0.99125   0.00000  Uiso   1.00
N270   N     0.91976   0.75979   0.97508   0.00000  Uiso   1.00
N271   N     0.88482   0.77485   0.98974   0.00000  Uiso   1.00
C272   C     0.97005   0.70903   0.97306   0.00000  Uiso   1.00
N273   N    -0.01112   0.72344   0.93819   0.00000  Uiso   1.00
N274   N     0.02049   0.70567   0.91953   0.00000  Uiso   1.00
C275   C     0.03464   0.67291   0.93503   0.00000  Uiso   1.00
N276   N     0.01641   0.65880   0.97038   0.00000  Uiso   1.00
N277   N     0.98457   0.67657   0.98907   0.00000  Uiso   1.00
C278   C     0.53114   0.72583   0.25935   0.00000  Uiso   1.00
N279   N     0.57101   0.74352   0.26336   0.00000  Uiso   1.00
N280   N     0.58509   0.77669   0.24352   0.00000  Uiso   1.00
C281   C     0.55974   0.79404   0.21958   0.00000  Uiso   1.00
N282   N     0.51944   0.77713   0.21655   0.00000  Uiso   1.00
N283   N     0.50544   0.74363   0.23608   0.00000  Uiso   1.00
C284   C     0.51783   0.68537   0.27525   0.00000  Uiso   1.00
N285   N     0.48252   0.66300   0.26197   0.00000  Uiso   1.00
N286   N     0.47217   0.62483   0.27298   0.00000  Uiso   1.00
C287   C     0.49657   0.60742   0.29778   0.00000  Uiso   1.00
N288   N     0.53181   0.62985   0.31145   0.00000  Uiso   1.00
N289   N     0.54241   0.66803   0.30008   0.00000  Uiso   1.00
C290   C     0.48421   0.56495   0.30892   0.00000  Uiso   1.00
N291   N     0.49984   0.54924   0.34147   0.00000  Uiso   1.00
N292   N     0.48503   0.51182   0.35290   0.00000  Uiso   1.00
C293   C     0.45450   0.48872   0.33176   0.00000  Uiso   1.00
N294   N     0.43987   0.50426   0.29880   0.00000  Uiso   1.00
N295   N     0.45439   0.54147   0.28759   0.00000  Uiso   1.00
loop_
_geom_bond_atom_site_label_1
_geom_bond_atom_site_label_2
_geom_bond_distance
_geom_bond_site_symmetry_2
_ccdc_geom_bond_type
Gd0    O3      2.261   .     S
Gd0    O4      2.195   .     S
Gd0    O6      2.245   .     S
Gd0    O7      2.247   .     S
Gd0    O8      2.245   .     S
Gd0    O11     2.251   .     S
Gd1    O2      2.203   .     S
Gd1    O5      2.254   .     S
Gd1    O10     2.243   .     S
Gd1    O13     2.234   .     S
Gd1    O14     2.238   .     S
Gd1    O15     2.250   .     S
O2     C16     1.264   .     A
O3     C16     1.275   .     A
O4     C12     1.263   .     A
O5     C12     1.274   .     A
O6     C9      1.270   .     A
O7     C9      1.264   .     A
O8     C19     1.273   .     A
C9     C239    1.459   .     S
O10    C19     1.278   .     A
O11    C18     1.278   .     A
C12    C185    1.456   .     S
O13    C18     1.270   .     A
O14    C17     1.263   .     A
O15    C17     1.270   .     A
C16    C245    1.464   .     S
C17    C191    1.457   .     S
C18    C275    1.464   .     S
C19    C95     1.469   .     S
Gd20   O23     2.250   .     S
Gd20   O24     2.208   .     S
Gd20   O26     2.268   .     S
Gd20   O27     2.234   .     S
Gd20   O28     2.239   .     S
Gd20   O31     2.245   .     S
Gd21   O22     2.208   .     S
Gd21   O25     2.254   .     S
Gd21   O30     2.248   .     S
Gd21   O33     2.241   .     S
Gd21   O34     2.239   .     S
Gd21   O35     2.262   .     S
O22    C36     1.264   .     A
O23    C36     1.274   .     A
O24    C32     1.265   .     A
O25    C32     1.275   .     A
O26    C29     1.270   .     A
O27    C29     1.258   .     A
O28    C39     1.273   .     A
C29    C263    1.465   .     S
O30    C39     1.278   .     A
O31    C38     1.278   .     A
C32    C281    1.466   .     S
O33    C38     1.274   .     A
O34    C37     1.260   .     A
O35    C37     1.271   .     A
C36    C83     1.462   .     S
C37    C113    1.466   .     S
C38    C149    1.473   .     S
C39    C167    1.473   .     S
Gd40   O43     2.252   .     S
Gd40   O44     2.192   .     S
Gd40   O46     2.264   .     S
Gd40   O47     2.229   .     S
Gd40   O48     2.240   .     S
Gd40   O51     2.236   .     S
Gd41   O42     2.208   .     S
Gd41   O45     2.265   .     S
Gd41   O50     2.251   .     S
Gd41   O53     2.252   .     S
Gd41   O54     2.240   .     S
Gd41   O55     2.260   .     S
O42    C56     1.265   .     A
O43    C56     1.273   .     A
O44    C52     1.263   .     A
O45    C52     1.276   .     A
O46    C49     1.270   .     A
O47    C49     1.258   .     A
O48    C59     1.272   .     A
C49    C227    1.461   .     S
O50    C59     1.279   .     A
O51    C58     1.277   .     A
C52    C221    1.471   .     S
O53    C58     1.276   .     A
O54    C57     1.261   .     A
O55    C57     1.271   .     A
C56    C257    1.461   .     S
C57    C119    1.463   .     S
C58    C137    1.473   .     S
C59    C155    1.471   .     S
Gd60   O63     2.248   .     S
Gd60   O64     2.188   .     S
Gd60   O66     2.254   .     S
Gd60   O67     2.228   .     S
Gd60   O68     2.236   .     S
Gd60   O71     2.235   .     S
Gd61   O62     2.200   .     S
Gd61   O65     2.271   .     S
Gd61   O70     2.259   .     S
Gd61   O73     2.255   .     S
Gd61   O74     2.246   .     S
Gd61   O75     2.246   .     S
O62    C76     1.264   .     A
O63    C76     1.272   .     A
O64    C72     1.262   .     A
O65    C72     1.276   .     A
O66    C69     1.269   .     A
O67    C69     1.260   .     A
O68    C79     1.270   .     A
C69    C203    1.454   .     S
O70    C79     1.280   .     A
O71    C78     1.276   .     A
C72    C209    1.472   .     S
O73    C78     1.275   .     A
O74    C77     1.263   .     A
O75    C77     1.271   .     A
C76    C173    1.460   .     S
C77    C131    1.460   .     S
C78    C293    1.473   .     S
C79    C101    1.474   .     S
C80    N85     1.362   .     A
C80    N81     1.357   1_554 A
C80    C86     1.470   1_554 S
N81    C80     1.357   1_556 A
N81    N82     1.331   1_556 A
N82    C83     1.360   .     A
N82    N81     1.331   1_554 A
C83    N84     1.359   .     A
N84    N85     1.333   .     A
C86    N91     1.364   .     A
C86    C80     1.470   1_556 S
C86    N87     1.357   1_556 A
N87    N88     1.330   .     A
N87    C86     1.357   1_554 A
N88    C89     1.360   1_554 A
C89    N90     1.361   .     A
C89    C92     1.471   .     S
C89    N88     1.360   1_556 A
N90    N91     1.335   .     A
C92    N93     1.363   .     A
C92    N97     1.356   .     A
N93    N94     1.337   .     A
N94    C95     1.361   .     A
C95    N96     1.357   .     A
N96    N97     1.328   .     A
C98    N99     1.356   .     A
C98    N103    1.360   .     A
C98    C104    1.473   .     S
N99    N100    1.331   .     A
N100   C101    1.357   .     A
C101   N102    1.360   .     A
N102   N103    1.336   .     A
C104   N105    1.359   .     A
C104   N109    1.358   .     A
N105   N106    1.334   .     A
N106   C107    1.360   .     A
C107   N108    1.357   .     A
C107   C110    1.472   .     S
N108   N109    1.332   .     A
C110   N111    1.360   .     A
C110   N115    1.357   .     A
N111   N112    1.334   1_545 A
N112   C113    1.358   .     A
N112   N111    1.334   1_565 A
C113   N114    1.358   1_565 A
N114   N115    1.332   .     A
N114   C113    1.358   1_545 A
C116   N117    1.356   .     A
C116   N121    1.359   .     A
C116   C122    1.466   .     S
N117   N118    1.331   .     A
N118   C119    1.356   .     A
C119   N120    1.358   .     A
N120   N121    1.333   .     A
C122   N123    1.357   .     A
C122   N127    1.358   .     A
N123   N124    1.332   .     A
N124   C125    1.357   .     A
C125   N126    1.357   .     A
C125   C128    1.464   .     S
N126   N127    1.332   .     A
C128   N129    1.358   .     A
C128   N133    1.357   .     A
N129   N130    1.332   .     A
N130   C131    1.357   .     A
C131   N132    1.357   .     A
N132   N133    1.331   .     A
C134   N135    1.362   .     A
C134   C140    1.475   .     S
C134   N139    1.356   1_545 A
N135   N136    1.338   .     A
N136   C137    1.361   .     A
C137   N138    1.357   .     A
N138   N139    1.329   1_545 A
N139   C134    1.356   1_565 A
N139   N138    1.329   1_565 A
C140   N145    1.360   .     A
C140   N141    1.358   1_545 A
N141   N142    1.331   .     A
N141   C140    1.358   1_565 A
N142   C143    1.357   .     A
C143   C146    1.475   .     S
C143   N144    1.361   1_565 A
N144   N145    1.337   .     A
N144   C143    1.361   1_545 A
C146   N147    1.359   .     A
C146   N151    1.358   .     A
N147   N148    1.336   1_556 A
N148   C149    1.360   .     A
N148   N147    1.336   1_554 A
C149   N150    1.357   1_554 A
N150   N151    1.332   .     A
N150   C149    1.357   1_556 A
C152   N153    1.356   .     A
C152   C158    1.476   .     S
C152   N157    1.361   1_545 A
N153   N154    1.330   .     A
N154   C155    1.356   .     A
C155   N156    1.360   1_545 A
N156   N157    1.337   .     A
N156   C155    1.360   1_565 A
N157   C152    1.361   1_565 A
C158   N163    1.358   .     A
C158   N159    1.360   1_545 A
N159   N160    1.336   .     A
N159   C158    1.360   1_565 A
N160   C161    1.360   .     A
C161   C164    1.475   .     S
C161   N162    1.357   1_565 A
N162   N163    1.331   .     A
N162   C161    1.357   1_545 A
C164   N165    1.358   .     A
C164   N169    1.359   .     A
N165   N166    1.332   .     A
N166   C167    1.358   .     A
C167   N168    1.359   .     A
N168   N169    1.335   .     A
C170   N171    1.355   .     A
C170   N175    1.359   .     A
C170   C176    1.467   .     S
N171   N172    1.330   .     A
N172   C173    1.357   .     A
C173   N174    1.358   .     A
N174   N175    1.334   .     A
C176   N177    1.358   .     A
C176   N181    1.357   .     A
N177   N178    1.333   .     A
N178   C179    1.359   .     A
C179   N180    1.357   .     A
C179   C182    1.468   .     S
N180   N181    1.331   .     A
C182   N183    1.356   .     A
C182   N187    1.358   .     A
N183   N184    1.330   .     A
N184   C185    1.357   .     A
C185   N186    1.358   .     A
N186   N187    1.334   .     A
C188   N189    1.358   .     A
C188   N193    1.356   .     A
C188   C194    1.461   .     S
N189   N190    1.333   1_554 A
N190   C191    1.358   .     A
N190   N189    1.333   1_556 A
C191   N192    1.354   .     A
N192   N193    1.329   1_556 A
N193   N192    1.329   1_554 A
C194   N195    1.355   .     A
C194   N199    1.358   .     A
N195   N196    1.328   .     A
N196   C197    1.355   .     A
C197   N198    1.358   .     A
C197   C200    1.460   .     S
N198   N199    1.334   .     A
C200   N201    1.358   .     A
C200   N205    1.356   .     A
N201   N202    1.333   .     A
N202   C203    1.358   .     A
C203   N204    1.354   .     A
N204   N205    1.328   .     A
C206   N207    1.351   .     A
C206   N211    1.363   .     A
C206   C212    1.469   .     S
N207   N208    1.326   .     A
N208   C209    1.357   .     A
C209   N210    1.361   .     A
N210   N211    1.340   .     A
C212   N213    1.355   .     A
C212   N217    1.360   .     A
N213   N214    1.333   .     A
N214   C215    1.360   .     A
C215   N216    1.355   .     A
C215   C218    1.468   .     S
N216   N217    1.333   .     A
C218   N223    1.351   .     A
C218   N219    1.363   1_455 A
N219   N220    1.339   .     A
N219   C218    1.363   1_655 A
N220   C221    1.360   .     A
C221   N222    1.357   .     A
N222   N223    1.326   1_655 A
N223   N222    1.326   1_455 A
C224   N225    1.355   .     A
C224   N229    1.359   .     A
C224   C230    1.464   .     S
N225   N226    1.330   .     A
N226   C227    1.356   1_565 A
C227   N228    1.357   .     A
C227   N226    1.356   1_545 A
N228   N229    1.334   1_545 A
N229   N228    1.334   1_565 A
C230   N231    1.357   .     A
C230   N235    1.358   1_655 A
N231   N232    1.332   .     A
N232   C233    1.357   1_655 A
C233   N234    1.357   .     A
C233   C236    1.465   .     S
C233   N232    1.357   1_455 A
N234   N235    1.331   .     A
N235   C230    1.358   1_455 A
C236   N237    1.358   .     A
C236   N241    1.357   .     A
N237   N238    1.332   .     A
N238   C239    1.356   .     A
C239   N240    1.357   .     A
N240   N241    1.331   .     A
C242   N243    1.360   .     A
C242   N247    1.356   .     A
C242   C248    1.473   1_455 S
N243   N244    1.336   .     A
N244   C245    1.359   .     A
C245   N246    1.357   .     A
N246   N247    1.331   .     A
C248   N249    1.358   .     A
C248   C242    1.473   1_655 S
C248   N253    1.359   1_655 A
N249   N250    1.332   .     A
N250   C251    1.357   .     A
C251   N252    1.359   .     A
C251   C254    1.472   .     S
N252   N253    1.335   1_655 A
N253   C248    1.359   1_455 A
N253   N252    1.335   1_455 A
C254   N255    1.358   .     A
C254   N259    1.357   .     A
N255   N256    1.334   .     A
N256   C257    1.358   .     A
C257   N258    1.357   .     A
N258   N259    1.331   .     A
C260   N261    1.360   .     A
C260   N265    1.356   .     A
C260   C266    1.468   1_554 S
N261   N262    1.334   .     A
N262   C263    1.357   .     A
C263   N264    1.357   .     A
N264   N265    1.331   .     A
C266   N267    1.359   .     A
C266   N271    1.356   .     A
C266   C260    1.468   1_556 S
N267   N268    1.333   .     A
N268   C269    1.357   .     A
C269   N270    1.358   .     A
C269   C272    1.467   .     S
N270   N271    1.332   .     A
C272   N277    1.360   .     A
C272   N273    1.355   1_655 A
N273   N274    1.329   .     A
N273   C272    1.355   1_455 A
N274   C275    1.356   .     A
C275   N276    1.358   .     A
N276   N277    1.335   1_455 A
N277   N276    1.335   1_655 A
C278   N279    1.356   .     A
C278   N283    1.361   .     A
C278   C284    1.472   .     S
N279   N280    1.331   .     A
N280   C281    1.359   .     A
C281   N282    1.357   .     A
N282   N283    1.335   .     A
C284   N285    1.356   .     A
C284   N289    1.361   .     A
N285   N286    1.330   .     A
N286   C287    1.358   .     A
C287   N288    1.359   .     A
C287   C290    1.473   .     S
N288   N289    1.336   .     A
C290   N291    1.362   .     A
C290   N295    1.354   .     A
N291   N292    1.338   .     A
N292   C293    1.361   .     A
C293   N294    1.357   .     A
N294   N295    1.328   .     A
