data_lcy+N155+E9
_audit_creation_date              2025-01-21
_audit_creation_method            'Materials Studio'
_symmetry_space_group_name_H-M    'P1'
_symmetry_Int_Tables_number       1
_symmetry_cell_setting            triclinic
loop_
_symmetry_equiv_pos_as_xyz
  x,y,z
_cell_length_a                    32.6553
_cell_length_b                    31.8840
_cell_length_c                    32.6350
_cell_angle_alpha                 92.2435
_cell_angle_beta                  97.9102
_cell_angle_gamma                 96.6045
loop_
_atom_site_label
_atom_site_type_symbol
_atom_site_fract_x
_atom_site_fract_y
_atom_site_fract_z
_atom_site_U_iso_or_equiv
_atom_site_adp_type
_atom_site_occupancy
C0     C     0.18980   0.57869   0.80953   0.00000  Uiso   1.00
Ho1    Ho    0.14950   0.60736   0.86511   0.00000  Uiso   1.00
C2     C     0.03420   0.66340   0.96377   0.00000  Uiso   1.00
Ho3    Ho    0.08980   0.63482   0.92401   0.00000  Uiso   1.00
O4     O     0.15037   0.57719   0.80533   0.00000  Uiso   1.00
O5     O     0.20882   0.59615   0.84413   0.00000  Uiso   1.00
O6     O     0.11444   0.54490   0.86896   0.00000  Uiso   1.00
O7     O     0.08333   0.60031   0.86386   0.00000  Uiso   1.00
C8     C     0.08028   0.55687   0.86408   0.00000  Uiso   1.00
C9     C     0.16930   0.67557   0.93269   0.00000  Uiso   1.00
O10    O     0.15528   0.55708   0.91277   0.00000  Uiso   1.00
O11    O     0.11165   0.58063   0.95706   0.00000  Uiso   1.00
O12    O     0.07264   0.66648   0.97946   0.00000  Uiso   1.00
O13    O     0.02577   0.64183   0.92951   0.00000  Uiso   1.00
O14    O     0.13880   0.69298   0.93347   0.00000  Uiso   1.00
O15    O     0.15715   0.63406   0.92718   0.00000  Uiso   1.00
O16    O     0.08541   0.68442   0.88081   0.00000  Uiso   1.00
O17    O     0.13149   0.66702   0.83690   0.00000  Uiso   1.00
C18    C     0.10450   0.69050   0.84902   0.00000  Uiso   1.00
C19    C     0.13970   0.55690   0.94813   0.00000  Uiso   1.00
C20    C     0.58535   0.78907   0.17881   0.00000  Uiso   1.00
Ho21   Ho    0.61666   0.84590   0.13736   0.00000  Uiso   1.00
C22    C     0.68774   0.95995   0.03686   0.00000  Uiso   1.00
Ho23   Ho    0.65446   0.91126   0.08767   0.00000  Uiso   1.00
O24    O     0.57073   0.79381   0.14053   0.00000  Uiso   1.00
O25    O     0.61689   0.81599   0.19532   0.00000  Uiso   1.00
O26    O     0.59963   0.86177   0.07217   0.00000  Uiso   1.00
O27    O     0.60402   0.86024   0.07351   0.00000  Uiso   1.00
C28    C     0.56572   0.87380   0.06188   0.00000  Uiso   1.00
C29    C     0.69938   0.92890   0.15918   0.00000  Uiso   1.00
O30    O     0.58016   0.89828   0.15257   0.00000  Uiso   1.00
O31    O     0.61008   0.94921   0.11326   0.00000  Uiso   1.00
O32    O     0.70211   0.96216   0.07566   0.00000  Uiso   1.00
O33    O     0.65386   0.93567   0.02719   0.00000  Uiso   1.00
O34    O     0.70662   0.94861   0.12878   0.00000  Uiso   1.00
O35    O     0.66700   0.89664   0.14976   0.00000  Uiso   1.00
O36    O     0.69274   0.86173   0.07562   0.00000  Uiso   1.00
O37    O     0.66548   0.81025   0.11545   0.00000  Uiso   1.00
C38    C     0.69156   0.82474   0.09082   0.00000  Uiso   1.00
C39    C     0.58542   0.93687   0.14000   0.00000  Uiso   1.00
C40    C     0.80106   0.21161   0.58211   0.00000  Uiso   1.00
Ho41   Ho    0.85745   0.16489   0.60967   0.00000  Uiso   1.00
C42    C     0.95212   0.03912   0.66950   0.00000  Uiso   1.00
Ho43   Ho    0.91460   0.10173   0.64226   0.00000  Uiso   1.00
O44    O     0.80156   0.17361   0.56836   0.00000  Uiso   1.00
O45    O     0.83202   0.22565   0.60963   0.00000  Uiso   1.00
O46    O     0.81343   0.13152   0.55831   0.00000  Uiso   1.00
O47    O     0.86338   0.10215   0.59197   0.00000  Uiso   1.00
C48    C     0.83108   0.09979   0.55884   0.00000  Uiso   1.00
C49    C     0.91601   0.17419   0.69094   0.00000  Uiso   1.00
O50    O     0.90746   0.17821   0.56989   0.00000  Uiso   1.00
O51    O     0.95384   0.13338   0.59951   0.00000  Uiso   1.00
O52    O     0.96288   0.07700   0.68498   0.00000  Uiso   1.00
O53    O     0.92480   0.03623   0.63751   0.00000  Uiso   1.00
O54    O     0.92055   0.14033   0.70404   0.00000  Uiso   1.00
O55    O     0.91416   0.17050   0.65020   0.00000  Uiso   1.00
O56    O     0.86304   0.08443   0.67669   0.00000  Uiso   1.00
O57    O     0.82211   0.13644   0.65777   0.00000  Uiso   1.00
C58    C     0.83093   0.10412   0.67912   0.00000  Uiso   1.00
C59    C     0.94334   0.16250   0.57407   0.00000  Uiso   1.00
C60    C     0.39134   0.26529   0.29971   0.00000  Uiso   1.00
Ho61   Ho    0.36895   0.32897   0.34147   0.00000  Uiso   1.00
C62    C     0.34282   0.45227   0.45193   0.00000  Uiso   1.00
Ho63   Ho    0.35522   0.39951   0.39511   0.00000  Uiso   1.00
O64    O     0.40632   0.27739   0.33681   0.00000  Uiso   1.00
O65    O     0.36206   0.28617   0.28463   0.00000  Uiso   1.00
O66    O     0.41585   0.29559   0.37775   0.00000  Uiso   1.00
O67    O     0.39718   0.35286   0.40302   0.00000  Uiso   1.00
C68    C     0.42364   0.32175   0.40711   0.00000  Uiso   1.00
C69    C     0.30639   0.41139   0.32619   0.00000  Uiso   1.00
O70    O     0.41690   0.37962   0.32474   0.00000  Uiso   1.00
O71    O     0.40504   0.43435   0.36871   0.00000  Uiso   1.00
O72    O     0.32304   0.45194   0.41499   0.00000  Uiso   1.00
O73    O     0.37104   0.42789   0.45635   0.00000  Uiso   1.00
O74    O     0.30896   0.43420   0.35791   0.00000  Uiso   1.00
O75    O     0.33099   0.37912   0.33241   0.00000  Uiso   1.00
O76    O     0.30882   0.35230   0.41323   0.00000  Uiso   1.00
O77    O     0.31624   0.29575   0.37043   0.00000  Uiso   1.00
C78    C     0.29836   0.31376   0.39882   0.00000  Uiso   1.00
C79    C     0.42437   0.41892   0.34053   0.00000  Uiso   1.00
C80    C     0.46201   0.79399   0.00437   0.00000  Uiso   1.00
N81    N     0.48663   0.78163   0.03757   0.00000  Uiso   1.00
N82    N     0.52078   0.80644   0.05481   0.00000  Uiso   1.00
C83    C     0.53115   0.84477   0.03992   0.00000  Uiso   1.00
N84    N     0.50699   0.85691   1.00642   0.00000  Uiso   1.00
N85    N     0.47314   0.83185   0.98883   0.00000  Uiso   1.00
C86    C     0.42149   0.76958   0.98880   0.00000  Uiso   1.00
N87    N     0.39846   0.78023   0.95374   0.00000  Uiso   1.00
N88    N     0.35938   0.76232   0.94272   0.00000  Uiso   1.00
C89    C     0.34175   0.73325   0.96640   0.00000  Uiso   1.00
N90    N     0.36539   0.72124   0.00056   0.00000  Uiso   1.00
N91    N     0.40452   0.73916   0.01159   0.00000  Uiso   1.00
C92    C     0.29674   0.71852   0.95742   0.00000  Uiso   1.00
N93    N     0.27850   0.69070   0.98181   0.00000  Uiso   1.00
N94    N     0.23767   0.67827   0.97426   0.00000  Uiso   1.00
C95    C     0.21323   0.69387   0.94277   0.00000  Uiso   1.00
N96    N     0.23130   0.72204   0.91852   0.00000  Uiso   1.00
N97    N     0.27230   0.73423   0.92586   0.00000  Uiso   1.00
C98    C     0.44655   0.17057   0.24323   0.00000  Uiso   1.00
N99    N     0.41092   0.18336   0.22342   0.00000  Uiso   1.00
N100   N     0.39275   0.21373   0.24078   0.00000  Uiso   1.00
C101   C     0.40935   0.23174   0.27873   0.00000  Uiso   1.00
N102   N     0.44476   0.21883   0.29826   0.00000  Uiso   1.00
N103   N     0.46304   0.18905   0.28084   0.00000  Uiso   1.00
C104   C     0.46728   0.13661   0.22581   0.00000  Uiso   1.00
N105   N     0.50728   0.13232   0.24137   0.00000  Uiso   1.00
N106   N     0.52600   0.10050   0.22797   0.00000  Uiso   1.00
C107   C     0.50524   0.07120   0.19890   0.00000  Uiso   1.00
N108   N     0.46535   0.07568   0.18294   0.00000  Uiso   1.00
N109   N     0.44675   0.10785   0.19603   0.00000  Uiso   1.00
C110   C     0.52570   0.03520   0.18524   0.00000  Uiso   1.00
N111   N     0.50295   1.00005   0.16533   0.00000  Uiso   1.00
N112   N     0.52161   0.96791   0.15219   0.00000  Uiso   1.00
C113   C     0.56381   0.96986   0.15820   0.00000  Uiso   1.00
N114   N     0.58648   1.00492   0.17835   0.00000  Uiso   1.00
N115   N     0.56783   0.03675   0.19197   0.00000  Uiso   1.00
C116   C     0.69585   0.26911   0.54138   0.00000  Uiso   1.00
N117   N     0.71730   0.27987   0.57979   0.00000  Uiso   1.00
N118   N     0.75221   0.26311   0.59257   0.00000  Uiso   1.00
C119   C     0.76653   0.23496   0.56737   0.00000  Uiso   1.00
N120   N     0.74526   0.22462   0.52899   0.00000  Uiso   1.00
N121   N     0.71092   0.24178   0.51604   0.00000  Uiso   1.00
C122   C     0.65684   0.28597   0.52637   0.00000  Uiso   1.00
N123   N     0.64605   0.28799   0.48502   0.00000  Uiso   1.00
N124   N     0.60958   0.29974   0.46965   0.00000  Uiso   1.00
C125   C     0.58192   0.30937   0.49487   0.00000  Uiso   1.00
N126   N     0.59250   0.30739   0.53656   0.00000  Uiso   1.00
N127   N     0.62951   0.29607   0.55209   0.00000  Uiso   1.00
C128   C     0.54069   0.31910   0.47566   0.00000  Uiso   1.00
N129   N     0.50603   0.31151   0.49445   0.00000  Uiso   1.00
N130   N     0.46821   0.31460   0.47383   0.00000  Uiso   1.00
C131   C     0.46397   0.32562   0.43379   0.00000  Uiso   1.00
N132   N     0.49864   0.33402   0.41553   0.00000  Uiso   1.00
N133   N     0.53615   0.33066   0.43589   0.00000  Uiso   1.00
C134   C     0.78096   0.06404   0.78304   0.00000  Uiso   1.00
N135   N     0.78288   0.10535   0.77384   0.00000  Uiso   1.00
N136   N     0.79504   0.11788   0.73840   0.00000  Uiso   1.00
C137   C     0.80564   0.08954   0.71081   0.00000  Uiso   1.00
N138   N     0.80267   0.04809   0.71958   0.00000  Uiso   1.00
N139   N     0.79012   0.03549   0.75474   0.00000  Uiso   1.00
C140   C     0.77102   0.05035   0.82357   0.00000  Uiso   1.00
N141   N     0.76417   1.00854   0.82989   0.00000  Uiso   1.00
N142   N     0.75593   0.99554   0.86644   0.00000  Uiso   1.00
C143   C     0.75473   0.02367   0.89846   0.00000  Uiso   1.00
N144   N     0.76171   0.06567   0.89236   0.00000  Uiso   1.00
N145   N     0.76981   0.07875   0.85556   0.00000  Uiso   1.00
C146   C     0.74216   1.00776   0.93725   0.00000  Uiso   1.00
N147   N     0.74335   0.03321   0.97208   0.00000  Uiso   1.00
N148   N     0.72757   1.01823   1.00513   0.00000  Uiso   1.00
C149   C     0.70967   0.97750   0.00399   0.00000  Uiso   1.00
N150   N     0.70937   0.95220   0.96959   0.00000  Uiso   1.00
N151   N     0.72552   0.96687   0.93706   0.00000  Uiso   1.00
C152   C     0.79985   0.02623   0.44912   0.00000  Uiso   1.00
N153   N     0.83512   0.05410   0.45636   0.00000  Uiso   1.00
N154   N     0.84625   0.07537   0.49273   0.00000  Uiso   1.00
C155   C     0.82297   0.06915   0.52359   0.00000  Uiso   1.00
N156   N     0.78785   0.04089   0.51690   0.00000  Uiso   1.00
N157   N     0.77674   1.01929   0.48037   0.00000  Uiso   1.00
C158   C     0.78473   0.00923   0.40635   0.00000  Uiso   1.00
N159   N     0.75636   0.97416   0.39731   0.00000  Uiso   1.00
N160   N     0.74243   0.96092   0.35794   0.00000  Uiso   1.00
C161   C     0.75588   0.98269   0.32633   0.00000  Uiso   1.00
N162   N     0.78366   0.01791   0.33555   0.00000  Uiso   1.00
N163   N     0.79779   0.03086   0.37469   0.00000  Uiso   1.00
C164   C     0.74204   0.96799   0.28275   0.00000  Uiso   1.00
N165   N     0.75499   0.99092   0.25167   0.00000  Uiso   1.00
N166   N     0.74284   0.97775   0.21213   0.00000  Uiso   1.00
C167   C     0.71771   0.94088   0.20222   0.00000  Uiso   1.00
N168   N     0.70495   0.91776   0.23329   0.00000  Uiso   1.00
N169   N     0.71704   0.93095   0.27283   0.00000  Uiso   1.00
C170   C     0.30371   0.49276   0.56089   0.00000  Uiso   1.00
N171   N     0.28124   0.49908   0.52378   0.00000  Uiso   1.00
N172   N     0.29472   0.48905   0.48825   0.00000  Uiso   1.00
C173   C     0.33151   0.47301   0.48874   0.00000  Uiso   1.00
N174   N     0.35429   0.46789   0.52580   0.00000  Uiso   1.00
N175   N     0.34086   0.47779   0.56117   0.00000  Uiso   1.00
C176   C     0.28776   0.50127   0.60002   0.00000  Uiso   1.00
N177   N     0.31086   0.49723   0.63748   0.00000  Uiso   1.00
N178   N     0.29688   0.50746   0.67272   0.00000  Uiso   1.00
C179   C     0.25917   0.52187   0.67150   0.00000  Uiso   1.00
N180   N     0.23605   0.52506   0.63410   0.00000  Uiso   1.00
N181   N     0.24998   0.51500   0.59909   0.00000  Uiso   1.00
C182   C     0.24243   0.53471   0.70901   0.00000  Uiso   1.00
N183   N     0.20383   0.54704   0.70441   0.00000  Uiso   1.00
N184   N     0.18761   0.56054   0.73686   0.00000  Uiso   1.00
C185   C     0.20950   0.56286   0.77536   0.00000  Uiso   1.00
N186   N     0.24813   0.55006   0.78050   0.00000  Uiso   1.00
N187   N     0.26437   0.53608   0.74777   0.00000  Uiso   1.00
C188   C     0.19707   0.50151   0.05161   0.00000  Uiso   1.00
N189   N     0.19826   0.48378   0.01306   0.00000  Uiso   1.00
N190   N     0.17924   0.50004   0.97924   0.00000  Uiso   1.00
C191   C     0.15747   0.53365   0.98313   0.00000  Uiso   1.00
N192   N     0.15608   0.55047   1.02159   0.00000  Uiso   1.00
N193   N     0.17553   0.53497   0.05491   0.00000  Uiso   1.00
C194   C     0.21686   0.48569   0.09055   0.00000  Uiso   1.00
N195   N     0.22123   0.51114   0.12557   0.00000  Uiso   1.00
N196   N     0.23440   0.49722   0.16230   0.00000  Uiso   1.00
C197   C     0.24373   0.45712   0.16586   0.00000  Uiso   1.00
N198   N     0.23999   0.43144   0.13082   0.00000  Uiso   1.00
N199   N     0.22661   0.44545   0.09376   0.00000  Uiso   1.00
C200   C     0.25744   0.44304   0.20752   0.00000  Uiso   1.00
N201   N     0.27296   0.40562   0.21329   0.00000  Uiso   1.00
N202   N     0.28733   0.39493   0.25133   0.00000  Uiso   1.00
C203   C     0.28610   0.42091   0.28504   0.00000  Uiso   1.00
N204   N     0.27087   0.45842   0.27919   0.00000  Uiso   1.00
N205   N     0.25678   0.46920   0.24121   0.00000  Uiso   1.00
C206   C     0.19319   0.26039   0.44795   0.00000  Uiso   1.00
N207   N     0.21861   0.29415   0.46718   0.00000  Uiso   1.00
N208   N     0.25272   0.30951   0.45202   0.00000  Uiso   1.00
C209   C     0.26335   0.29177   0.41700   0.00000  Uiso   1.00
N210   N     0.23841   0.25758   0.39783   0.00000  Uiso   1.00
N211   N     0.20405   0.24208   0.41312   0.00000  Uiso   1.00
C212   C     0.15363   0.24610   0.46430   0.00000  Uiso   1.00
N213   N     0.12750   0.21145   0.44763   0.00000  Uiso   1.00
N214   N     0.09223   0.19961   0.46299   0.00000  Uiso   1.00
C215   C     0.08141   0.22201   0.49541   0.00000  Uiso   1.00
N216   N     0.10724   0.25684   0.51165   0.00000  Uiso   1.00
N217   N     0.14247   0.26857   0.49645   0.00000  Uiso   1.00
C218   C     0.04329   0.20801   0.51384   0.00000  Uiso   1.00
N219   N     0.03232   0.23111   0.54569   0.00000  Uiso   1.00
N220   N     0.99927   0.21742   0.56360   0.00000  Uiso   1.00
C221   C     0.97577   0.18017   0.55031   0.00000  Uiso   1.00
N222   N     0.98674   0.15700   0.51866   0.00000  Uiso   1.00
N223   N     0.01962   0.17082   0.50055   0.00000  Uiso   1.00
C224   C     0.97810   0.92844   0.72750   0.00000  Uiso   1.00
N225   N     0.95793   0.92682   0.68807   0.00000  Uiso   1.00
N226   N     0.95121   0.96233   0.66927   0.00000  Uiso   1.00
C227   C     0.96512   0.00088   0.68865   0.00000  Uiso   1.00
N228   N     0.98514   0.00261   0.72804   0.00000  Uiso   1.00
N229   N     0.99170   0.96709   0.74694   0.00000  Uiso   1.00
C230   C     0.98931   0.88939   0.74741   0.00000  Uiso   1.00
N231   N     1.00811   0.89159   0.78738   0.00000  Uiso   1.00
N232   N     0.02441   0.85845   0.80367   0.00000  Uiso   1.00
C233   C     0.02289   0.82175   0.78061   0.00000  Uiso   1.00
N234   N     1.00232   0.81875   0.74127   0.00000  Uiso   1.00
N235   N     0.98583   0.85192   0.72498   0.00000  Uiso   1.00
C236   C     0.04684   0.78787   0.79693   0.00000  Uiso   1.00
N237   N     0.04993   0.75267   0.77310   0.00000  Uiso   1.00
N238   N     0.07229   0.72273   0.78819   0.00000  Uiso   1.00
C239   C     0.09319   0.72742   0.82730   0.00000  Uiso   1.00
N240   N     0.09041   0.76281   0.85079   0.00000  Uiso   1.00
N241   N     0.06816   0.79263   0.83583   0.00000  Uiso   1.00
C242   C    -0.00933   0.45777   0.81949   0.00000  Uiso   1.00
N243   N    -0.00183   0.49115   0.79576   0.00000  Uiso   1.00
N244   N     0.02391   0.52529   0.81147   0.00000  Uiso   1.00
C245   C     0.04296   0.52720   0.85138   0.00000  Uiso   1.00
N246   N     0.03485   0.49422   0.87508   0.00000  Uiso   1.00
N247   N     0.00877   0.46044   0.85962   0.00000  Uiso   1.00
C248   C     0.96906   0.41691   0.80121   0.00000  Uiso   1.00
N249   N     0.96289   0.38397   0.82575   0.00000  Uiso   1.00
N250   N     0.94884   0.34521   0.80932   0.00000  Uiso   1.00
C251   C     0.94055   0.33791   0.76763   0.00000  Uiso   1.00
N252   N     0.94591   0.37099   0.74306   0.00000  Uiso   1.00
N253   N     0.96000   0.40976   0.75950   0.00000  Uiso   1.00
C254   C     0.93029   0.29459   0.74909   0.00000  Uiso   1.00
N255   N     0.92151   0.28838   0.70741   0.00000  Uiso   1.00
N256   N     0.91596   0.24953   0.68980   0.00000  Uiso   1.00
C257   C     0.91900   0.21535   0.71296   0.00000  Uiso   1.00
N258   N     0.92792   0.22122   0.75476   0.00000  Uiso   1.00
N259   N     0.93338   0.26032   0.77252   0.00000  Uiso   1.00
C260   C     0.79230   0.77301   0.05415   0.00000  Uiso   1.00
N261   N     0.78451   0.76970   0.09387   0.00000  Uiso   1.00
N262   N     0.75025   0.78281   0.10557   0.00000  Uiso   1.00
C263   C     0.72248   0.79924   0.07767   0.00000  Uiso   1.00
N264   N     0.72988   0.80127   0.03785   0.00000  Uiso   1.00
N265   N     0.76385   0.78806   0.02616   0.00000  Uiso   1.00
C266   C     0.83137   0.76202   0.04172   0.00000  Uiso   1.00
N267   N     0.83635   0.76000   1.00112   0.00000  Uiso   1.00
N268   N     0.87139   0.74888   0.98978   0.00000  Uiso   1.00
C269   C     0.90294   0.74003   1.01858   0.00000  Uiso   1.00
N270   N     0.89832   0.74288   0.05920   0.00000  Uiso   1.00
N271   N     0.86313   0.75374   0.07054   0.00000  Uiso   1.00
C272   C     0.93929   0.72361   1.00520   0.00000  Uiso   1.00
N273   N     0.97432   0.71990   0.03205   0.00000  Uiso   1.00
N274   N     0.00551   0.70142   1.01942   0.00000  Uiso   1.00
C275   C     0.00207   0.68535   0.97973   0.00000  Uiso   1.00
N276   N     0.96759   0.69028   0.95299   0.00000  Uiso   1.00
N277   N     0.93688   0.70906   0.96538   0.00000  Uiso   1.00
C278   C     0.54244   0.67977   0.23441   0.00000  Uiso   1.00
N279   N     0.57114   0.70950   0.25659   0.00000  Uiso   1.00
N280   N     0.58378   0.74553   0.23989   0.00000  Uiso   1.00
C281   C     0.56785   0.75322   0.20056   0.00000  Uiso   1.00
N282   N     0.53837   0.72412   0.17907   0.00000  Uiso   1.00
N283   N     0.52599   0.68815   0.19557   0.00000  Uiso   1.00
C284   C     0.53052   0.63814   0.25082   0.00000  Uiso   1.00
N285   N     0.50936   0.60597   0.22501   0.00000  Uiso   1.00
N286   N     0.49936   0.56801   0.23913   0.00000  Uiso   1.00
C287   C     0.51007   0.56062   0.27965   0.00000  Uiso   1.00
N288   N     0.53104   0.59281   0.30555   0.00000  Uiso   1.00
N289   N     0.54137   0.63072   0.29136   0.00000  Uiso   1.00
C290   C     0.49475   0.52008   0.29587   0.00000  Uiso   1.00
N291   N     0.49532   0.51643   0.33723   0.00000  Uiso   1.00
N292   N     0.47544   0.48239   0.35153   0.00000  Uiso   1.00
C293   C     0.45489   0.45019   0.32521   0.00000  Uiso   1.00
N294   N     0.45537   0.45336   0.28395   0.00000  Uiso   1.00
N295   N     0.47488   0.48764   0.26959   0.00000  Uiso   1.00
loop_
_geom_bond_atom_site_label_1
_geom_bond_atom_site_label_2
_geom_bond_distance
_geom_bond_site_symmetry_2
_ccdc_geom_bond_type
C0     O4      1.271   .     A
C0     O5      1.284   .     A
C0     C185    1.463   .     S
Ho1    O4      2.147   .     S
Ho1    O5      2.203   .     S
Ho1    O6      2.197   .     S
Ho1    O7      2.141   .     S
Ho1    O10     2.282   .     S
Ho1    O15     2.137   .     S
Ho1    O17     2.249   .     S
C2     O12     1.280   .     A
C2     O13     1.269   .     A
C2     C275    1.467   .     S
Ho3    O7      2.184   .     S
Ho3    O11     2.208   .     S
Ho3    O12     2.208   .     S
Ho3    O13     2.159   .     S
Ho3    O14     2.287   .     S
Ho3    O15     2.190   .     S
Ho3    O16     2.163   .     S
O6     C8      1.212   .     D
O7     C8      1.377   .     S
C8     C245    1.455   .     S
C9     O14     1.197   .     D
C9     O15     1.335   .     S
C9     C95     1.473   .     S
O10    C19     1.324   .     A
O11    C19     1.308   .     A
O16    C18     1.292   .     A
O17    C18     1.311   .     A
C18    C239    1.456   .     S
C19    C191    1.474   .     S
C20    O24     1.296   .     A
C20    O25     1.302   .     A
C20    C281    1.470   .     S
Ho21   O24     2.122   .     S
Ho21   O25     2.151   .     S
Ho21   O26     2.217   .     S
Ho21   O27     2.145   .     S
Ho21   O30     2.239   .     S
Ho21   O35     2.153   .     S
Ho21   O37     2.239   .     S
C22    O32     1.285   .     A
C22    O33     1.269   .     A
C22    C149    1.464   .     S
Ho23   O27     2.165   .     S
Ho23   O31     2.218   .     S
Ho23   O32     2.201   .     S
Ho23   O33     2.148   .     S
Ho23   O34     2.213   .     S
Ho23   O35     2.093   .     S
Ho23   O36     2.180   .     S
O26    C28     1.221   .     D
O27    C28     1.379   .     S
C28    C83     1.459   .     S
C29    O34     1.231   .     D
C29    O35     1.381   .     S
C29    C167    1.467   .     S
O30    C39     1.312   .     A
O31    C39     1.308   .     A
O36    C38     1.296   .     A
O37    C38     1.309   .     A
C38    C263    1.465   .     S
C39    C113    1.481   .     S
C40    O44     1.278   .     A
C40    O45     1.282   .     A
C40    C119    1.459   .     S
Ho41   O44     2.167   .     S
Ho41   O45     2.194   .     S
Ho41   O46     2.203   .     S
Ho41   O47     2.098   .     S
Ho41   O50     2.236   .     S
Ho41   O55     2.108   .     S
Ho41   O57     2.234   .     S
C42    O52     1.282   .     A
C42    O53     1.269   .     A
C42    C227    1.471   .     S
Ho43   O47     2.178   .     S
Ho43   O51     2.216   .     S
Ho43   O52     2.195   .     S
Ho43   O53     2.155   .     S
Ho43   O54     2.293   .     S
Ho43   O55     2.200   .     S
Ho43   O56     2.181   .     S
O46    C48     1.220   .     D
O47    C48     1.396   .     S
C48    C155    1.455   .     S
C49    O54     1.194   .     D
C49    O55     1.323   .     S
C49    C257    1.458   .     S
O50    C59     1.319   .     A
O51    C59     1.313   .     A
O56    C58     1.292   .     A
O57    C58     1.303   .     A
C58    C137    1.467   .     S
C59    C221    1.471   .     S
C60    O64     1.269   .     A
C60    O65     1.282   .     A
C60    C101    1.469   .     S
Ho61   O64     2.170   .     S
Ho61   O65     2.230   .     S
Ho61   O66     2.203   .     S
Ho61   O67     2.162   .     S
Ho61   O70     2.254   .     S
Ho61   O75     2.138   .     S
Ho61   O77     2.255   .     S
C62    O72     1.286   .     A
C62    O73     1.269   .     A
C62    C173    1.460   .     S
Ho63   O67     2.135   .     S
Ho63   O71     2.161   .     S
Ho63   O72     2.197   .     S
Ho63   O73     2.132   .     S
Ho63   O74     2.228   .     S
Ho63   O75     2.137   .     S
Ho63   O76     2.169   .     S
O66    C68     1.225   .     D
O67    C68     1.387   .     S
C68    C131    1.465   .     S
C69    O74     1.229   .     D
C69    O75     1.381   .     S
C69    C203    1.473   .     S
O70    C79     1.319   .     A
O71    C79     1.297   .     A
O76    C78     1.289   .     A
O77    C78     1.309   .     A
C78    C209    1.478   .     S
C79    C293    1.478   .     S
C80    N81     1.357   .     A
C80    N85     1.358   1_554 A
C80    C86     1.470   1_554 S
N81    N82     1.333   .     A
N82    C83     1.357   .     A
C83    N84     1.354   1_554 A
N84    N85     1.333   .     A
N84    C83     1.354   1_556 A
N85    C80     1.358   1_556 A
C86    N87     1.357   .     A
C86    C80     1.470   1_556 S
C86    N91     1.359   1_556 A
N87    N88     1.332   .     A
N88    C89     1.358   .     A
C89    C92     1.476   .     S
C89    N90     1.360   1_556 A
N90    N91     1.334   .     A
N90    C89     1.360   1_554 A
N91    C86     1.359   1_554 A
C92    N93     1.356   .     A
C92    N97     1.362   .     A
N93    N94     1.333   .     A
N94    C95     1.359   .     A
C95    N96     1.358   .     A
N96    N97     1.336   .     A
C98    N99     1.364   .     A
C98    N103    1.354   .     A
C98    C104    1.477   .     S
N99    N100    1.339   .     A
N100   C101    1.358   .     A
C101   N102    1.357   .     A
N102   N103    1.327   .     A
C104   N105    1.359   .     A
C104   N109    1.358   .     A
N105   N106    1.332   .     A
N106   C107    1.356   .     A
C107   N108    1.360   .     A
C107   C110    1.477   .     S
N108   N109    1.336   .     A
C110   N115    1.358   .     A
C110   N111    1.360   1_545 A
N111   N112    1.337   .     A
N111   C110    1.360   1_565 A
N112   C113    1.359   .     A
C113   N114    1.360   .     A
N114   N115    1.334   1_565 A
N115   N114    1.334   1_545 A
C116   N117    1.360   .     A
C116   N121    1.356   .     A
C116   C122    1.469   .     S
N117   N118    1.336   .     A
N118   C119    1.359   .     A
C119   N120    1.355   .     A
N120   N121    1.328   .     A
C122   N123    1.353   .     A
C122   N127    1.362   .     A
N123   N124    1.328   .     A
N124   C125    1.355   .     A
C125   N126    1.363   .     A
C125   C128    1.477   .     S
N126   N127    1.339   .     A
C128   N129    1.362   .     A
C128   N133    1.356   .     A
N129   N130    1.339   .     A
N130   C131    1.359   .     A
C131   N132    1.355   .     A
N132   N133    1.329   .     A
C134   N135    1.359   .     A
C134   N139    1.358   .     A
C134   C140    1.475   .     S
N135   N136    1.335   .     A
N136   C137    1.357   .     A
C137   N138    1.359   .     A
N138   N139    1.332   .     A
C140   N145    1.362   .     A
C140   N141    1.355   1_545 A
N141   N142    1.330   .     A
N141   C140    1.355   1_565 A
N142   C143    1.358   1_565 A
C143   N144    1.359   .     A
C143   N142    1.358   1_545 A
C143   C146    1.474   1_545 S
N144   N145    1.337   .     A
C146   N151    1.353   .     A
C146   C143    1.474   1_565 S
C146   N147    1.364   1_565 A
N147   C146    1.364   1_545 A
N147   N148    1.339   1_545 A
N148   N147    1.339   1_565 A
N148   C149    1.358   1_556 A
C149   N148    1.358   1_554 A
C149   N150    1.355   1_554 A
N150   N151    1.327   .     A
N150   C149    1.355   1_556 A
C152   N153    1.358   .     A
C152   C158    1.475   .     S
C152   N157    1.360   1_545 A
N153   N154    1.328   .     A
N154   C155    1.350   .     A
C155   N156    1.361   .     A
N156   N157    1.337   1_545 A
N157   C152    1.360   1_565 A
N157   N156    1.337   1_565 A
C158   N163    1.354   .     A
C158   N159    1.363   1_545 A
N159   N160    1.337   .     A
N159   C158    1.363   1_565 A
N160   C161    1.360   .     A
C161   C164    1.473   .     S
C161   N162    1.356   1_565 A
N162   N163    1.329   .     A
N162   C161    1.356   1_545 A
C164   N165    1.359   .     A
C164   N169    1.357   .     A
N165   N166    1.333   .     A
N166   C167    1.355   .     A
C167   N168    1.360   .     A
N168   N169    1.333   .     A
C170   N171    1.362   .     A
C170   N175    1.353   .     A
C170   C176    1.471   .     S
N171   N172    1.336   .     A
N172   C173    1.357   .     A
C173   N174    1.356   .     A
N174   N175    1.329   .     A
C176   N177    1.364   .     A
C176   N181    1.353   .     A
N177   N178    1.337   .     A
N178   C179    1.359   .     A
C179   N180    1.358   .     A
C179   C182    1.470   .     S
N180   N181    1.328   .     A
C182   N183    1.354   .     A
C182   N187    1.362   .     A
N183   N184    1.326   .     A
N184   C185    1.352   .     A
C185   N186    1.361   .     A
N186   N187    1.339   .     A
C188   N189    1.366   .     A
C188   N193    1.352   .     A
C188   C194    1.478   .     S
N189   N190    1.343   1_554 A
N190   C191    1.364   .     A
N190   N189    1.343   1_556 A
C191   N192    1.354   .     A
N192   N193    1.325   1_556 A
N193   N192    1.325   1_554 A
C194   N195    1.357   .     A
C194   N199    1.362   .     A
N195   N196    1.328   .     A
N196   C197    1.354   .     A
C197   N198    1.363   .     A
C197   C200    1.476   .     S
N198   N199    1.340   .     A
C200   N201    1.359   .     A
C200   N205    1.358   .     A
N201   N202    1.337   .     A
N202   C203    1.359   .     A
C203   N204    1.357   .     A
N204   N205    1.334   .     A
C206   N207    1.356   .     A
C206   N211    1.366   .     A
C206   C212    1.495   .     S
N207   N208    1.331   .     A
N208   C209    1.360   .     A
C209   N210    1.358   .     A
N210   N211    1.341   .     A
C212   N213    1.361   .     A
C212   N217    1.361   .     A
N213   N214    1.339   .     A
N214   C215    1.363   .     A
C215   N216    1.357   .     A
C215   C218    1.487   .     S
N216   N217    1.335   .     A
C218   N219    1.362   .     A
C218   N223    1.359   .     A
N219   N220    1.335   1_455 A
N220   C221    1.358   .     A
N220   N219    1.335   1_655 A
C221   N222    1.358   .     A
N222   N223    1.335   1_655 A
N223   N222    1.335   1_455 A
C224   N225    1.359   .     A
C224   N229    1.362   .     A
C224   C230    1.486   .     S
N225   N226    1.334   .     A
N226   C227    1.360   1_565 A
C227   N228    1.356   .     A
C227   N226    1.360   1_545 A
N228   N229    1.335   1_545 A
N229   N228    1.335   1_565 A
C230   N231    1.359   .     A
C230   N235    1.362   .     A
N231   N232    1.333   1_655 A
N232   C233    1.358   .     A
N232   N231    1.333   1_455 A
C233   C236    1.479   .     S
C233   N234    1.359   1_455 A
N234   N235    1.337   .     A
N234   C233    1.359   1_655 A
C236   N237    1.362   .     A
C236   N241    1.355   .     A
N237   N238    1.336   .     A
N238   C239    1.356   .     A
C239   N240    1.358   .     A
N240   N241    1.330   .     A
C242   N243    1.360   .     A
C242   N247    1.356   .     A
C242   C248    1.471   1_455 S
N243   N244    1.335   .     A
N244   C245    1.360   .     A
C245   N246    1.353   .     A
N246   N247    1.330   .     A
C248   N249    1.359   .     A
C248   N253    1.357   .     A
C248   C242    1.471   1_655 S
N249   N250    1.332   .     A
N250   C251    1.356   .     A
C251   N252    1.360   .     A
C251   C254    1.469   .     S
N252   N253    1.333   .     A
C254   N255    1.353   .     A
C254   N259    1.363   .     A
N255   N256    1.327   .     A
N256   C257    1.356   .     A
C257   N258    1.356   .     A
N258   N259    1.336   .     A
C260   N261    1.361   .     A
C260   N265    1.353   .     A
C260   C266    1.466   .     S
N261   N262    1.336   .     A
N262   C263    1.359   .     A
C263   N264    1.357   .     A
N264   N265    1.328   .     A
C266   N271    1.358   .     A
C266   N267    1.357   1_554 A
N267   N268    1.331   .     A
N267   C266    1.357   1_556 A
N268   C269    1.358   .     A
C269   C272    1.463   .     S
C269   N270    1.356   1_556 A
N270   N271    1.333   .     A
N270   C269    1.356   1_554 A
C272   N277    1.351   .     A
C272   N273    1.362   1_556 A
N273   C272    1.362   1_554 A
N273   N274    1.338   1_654 A
N274   C275    1.359   .     A
N274   N273    1.338   1_456 A
C275   N276    1.354   1_455 A
N276   N277    1.326   .     A
N276   C275    1.354   1_655 A
C278   N279    1.362   .     A
C278   N283    1.356   .     A
C278   C284    1.481   .     S
N279   N280    1.337   .     A
N280   C281    1.360   .     A
C281   N282    1.355   .     A
N282   N283    1.331   .     A
C284   N285    1.360   .     A
C284   N289    1.359   .     A
N285   N286    1.333   .     A
N286   C287    1.357   .     A
C287   N288    1.359   .     A
C287   C290    1.476   .     S
N288   N289    1.335   .     A
C290   N291    1.357   .     A
C290   N295    1.360   .     A
N291   N292    1.333   .     A
N292   C293    1.362   .     A
C293   N294    1.356   .     A
N294   N295    1.335   .     A
