data_lcy+N139+E9
_audit_creation_date              2025-01-21
_audit_creation_method            'Materials Studio'
_symmetry_space_group_name_H-M    'P1'
_symmetry_Int_Tables_number       1
_symmetry_cell_setting            triclinic
loop_
_symmetry_equiv_pos_as_xyz
  x,y,z
_cell_length_a                    32.3643
_cell_length_b                    32.1823
_cell_length_c                    31.8087
_cell_angle_alpha                 88.7164
_cell_angle_beta                  89.8875
_cell_angle_gamma                 87.3022
loop_
_atom_site_label
_atom_site_type_symbol
_atom_site_fract_x
_atom_site_fract_y
_atom_site_fract_z
_atom_site_U_iso_or_equiv
_atom_site_adp_type
_atom_site_occupancy
C0     C     0.05544   0.54193   0.83764   0.00000  Uiso   1.00
Sm1    Sm    0.14397   0.64990   0.88073   0.00000  Uiso   1.00
Sm2    Sm    0.11527   0.59557   0.84966   0.00000  Uiso   1.00
C3     C     0.16680   0.56670   0.92781   0.00000  Uiso   1.00
C4     C     0.16871   0.57123   0.78930   0.00000  Uiso   1.00
O5     O     0.20728   0.67417   0.86811   0.00000  Uiso   1.00
O6     O     0.17197   0.70187   0.91655   0.00000  Uiso   1.00
O7     O     0.08311   0.64204   0.80426   0.00000  Uiso   1.00
O8     O     0.11599   0.69330   0.83222   0.00000  Uiso   1.00
O9     O     0.07992   0.63708   0.90359   0.00000  Uiso   1.00
O10    O     0.10862   0.68641   0.93167   0.00000  Uiso   1.00
O11    O     0.05452   0.56778   0.86700   0.00000  Uiso   1.00
O12    O     0.08743   0.54345   0.81463   0.00000  Uiso   1.00
O13    O     0.17090   0.60565   0.92903   0.00000  Uiso   1.00
O14    O     0.14688   0.55142   0.89770   0.00000  Uiso   1.00
O15    O     0.17432   0.60186   0.81259   0.00000  Uiso   1.00
O16    O     0.13561   0.55297   0.79736   0.00000  Uiso   1.00
C17    C     0.20609   0.70030   0.89702   0.00000  Uiso   1.00
C18    C     0.09014   0.68069   0.80590   0.00000  Uiso   1.00
C19    C     0.07640   0.66577   0.92950   0.00000  Uiso   1.00
C20    C     0.60012   0.79071   0.19616   0.00000  Uiso   1.00
Sm21   Sm    0.65977   0.89280   0.09777   0.00000  Uiso   1.00
Sm22   Sm    0.62625   0.84590   0.13741   0.00000  Uiso   1.00
C23    C     0.70136   0.80541   0.09002   0.00000  Uiso   1.00
C24    C     0.56603   0.82752   0.08248   0.00000  Uiso   1.00
O25    O     0.65208   0.91378   0.03026   0.00000  Uiso   1.00
O26    O     0.69817   0.94152   0.06600   0.00000  Uiso   1.00
O27    O     0.58572   0.89886   0.16341   0.00000  Uiso   1.00
O28    O     0.61367   0.94219   0.11808   0.00000  Uiso   1.00
O29    O     0.68524   0.88780   0.16357   0.00000  Uiso   1.00
O30    O     0.71069   0.93209   0.12204   0.00000  Uiso   1.00
O31    O     0.63150   0.81213   0.20173   0.00000  Uiso   1.00
O32    O     0.58222   0.79905   0.16148   0.00000  Uiso   1.00
O33    O     0.70580   0.84299   0.07870   0.00000  Uiso   1.00
O34    O     0.67006   0.79552   0.11183   0.00000  Uiso   1.00
O35    O     0.57059   0.81146   0.11889   0.00000  Uiso   1.00
O36    O     0.59309   0.85363   0.07364   0.00000  Uiso   1.00
C37    C     0.68041   0.93951   0.03062   0.00000  Uiso   1.00
C38    C     0.58865   0.93562   0.14803   0.00000  Uiso   1.00
C39    C     0.71068   0.91606   0.15885   0.00000  Uiso   1.00
C40    C     0.86246   0.08123   0.52469   0.00000  Uiso   1.00
Sm41   Sm    0.94343   0.13197   0.65665   0.00000  Uiso   1.00
Sm42   Sm    0.88877   0.12405   0.59046   0.00000  Uiso   1.00
C43    C     0.95115   0.18353   0.56936   0.00000  Uiso   1.00
C44    C     0.83392   0.18944   0.58080   0.00000  Uiso   1.00
O45    O     0.89838   0.16966   0.69758   0.00000  Uiso   1.00
O46    O     0.96215   0.17860   0.70431   0.00000  Uiso   1.00
O47    O     0.84524   0.09631   0.63600   0.00000  Uiso   1.00
O48    O     0.87542   0.13949   0.67832   0.00000  Uiso   1.00
O49    O     0.92878   0.06940   0.63198   0.00000  Uiso   1.00
O50    O     0.94261   0.07543   0.69779   0.00000  Uiso   1.00
O51    O     0.89085   0.06725   0.54930   0.00000  Uiso   1.00
O52    O     0.84697   0.11648   0.53493   0.00000  Uiso   1.00
O53    O     0.94685   0.18603   0.60915   0.00000  Uiso   1.00
O54    O     0.93427   0.15496   0.54995   0.00000  Uiso   1.00
O55    O     0.86111   0.18717   0.60932   0.00000  Uiso   1.00
O56    O     0.83604   0.15887   0.55634   0.00000  Uiso   1.00
C57    C     0.92596   0.18979   0.71537   0.00000  Uiso   1.00
C58    C     0.84693   0.11389   0.67128   0.00000  Uiso   1.00
C59    C     0.93368   0.05143   0.66805   0.00000  Uiso   1.00
C60    C     0.32944   0.39486   0.30137   0.00000  Uiso   1.00
Sm61   Sm    0.39290   0.30952   0.43110   0.00000  Uiso   1.00
Sm62   Sm    0.38153   0.36806   0.36387   0.00000  Uiso   1.00
C63    C     0.43794   0.29745   0.34117   0.00000  Uiso   1.00
C64    C     0.43785   0.42517   0.34407   0.00000  Uiso   1.00
O65    O     0.43336   0.35125   0.46880   0.00000  Uiso   1.00
O66    O     0.44178   0.28635   0.47781   0.00000  Uiso   1.00
O67    O     0.35410   0.41144   0.41054   0.00000  Uiso   1.00
O68    O     0.40080   0.37750   0.45075   0.00000  Uiso   1.00
O69    O     0.33024   0.32816   0.40589   0.00000  Uiso   1.00
O70    O     0.33779   0.31615   0.47269   0.00000  Uiso   1.00
O71    O     0.32148   0.36485   0.32612   0.00000  Uiso   1.00
O72    O     0.36327   0.41100   0.30968   0.00000  Uiso   1.00
O73    O     0.44309   0.29981   0.38091   0.00000  Uiso   1.00
O74    O     0.41167   0.32158   0.32236   0.00000  Uiso   1.00
O75    O     0.44328   0.39885   0.37408   0.00000  Uiso   1.00
O76    O     0.40448   0.42090   0.32437   0.00000  Uiso   1.00
C77    C     0.45411   0.32158   0.48690   0.00000  Uiso   1.00
C78    C     0.37336   0.40747   0.44523   0.00000  Uiso   1.00
C79    C     0.31311   0.32535   0.44213   0.00000  Uiso   1.00
C80    C     0.46363   0.79621   1.01177   0.00000  Uiso   1.00
N81    N     0.49141   0.82218   0.99452   0.00000  Uiso   1.00
N82    N     0.52473   0.83224   1.01631   0.00000  Uiso   1.00
C83    C     0.53128   0.81642   0.05590   0.00000  Uiso   1.00
N84    N     0.50359   0.79041   0.07263   0.00000  Uiso   1.00
N85    N     0.47048   0.78062   0.05113   0.00000  Uiso   1.00
C86    C     0.42484   0.78680   0.99087   0.00000  Uiso   1.00
N87    N     0.39332   0.77291   1.01470   0.00000  Uiso   1.00
N88    N     0.35780   0.76349   0.99723   0.00000  Uiso   1.00
C89    C     0.35239   0.76717   0.95507   0.00000  Uiso   1.00
N90    N     0.38406   0.78069   0.93089   0.00000  Uiso   1.00
N91    N     0.41964   0.79067   0.94854   0.00000  Uiso   1.00
C92    C     0.31287   0.75538   0.93697   0.00000  Uiso   1.00
N93    N     0.31075   0.74048   0.89745   0.00000  Uiso   1.00
N94    N     0.27600   0.72450   0.88385   0.00000  Uiso   1.00
C95    C     0.24203   0.72342   0.90903   0.00000  Uiso   1.00
N96    N     0.24404   0.73884   0.94820   0.00000  Uiso   1.00
N97    N     0.27882   0.75435   0.96193   0.00000  Uiso   1.00
C98    C     0.49022   0.19514   0.27878   0.00000  Uiso   1.00
N99    N     0.49552   0.19917   0.32079   0.00000  Uiso   1.00
N100   N     0.48102   0.23314   0.34010   0.00000  Uiso   1.00
C101   C     0.46065   0.26445   0.31822   0.00000  Uiso   1.00
N102   N     0.45593   0.26080   0.27605   0.00000  Uiso   1.00
N103   N     0.47070   0.22689   0.25664   0.00000  Uiso   1.00
C104   C     0.50281   0.15586   0.25841   0.00000  Uiso   1.00
N105   N     0.50382   0.15324   0.21584   0.00000  Uiso   1.00
N106   N     0.51404   0.11722   0.19772   0.00000  Uiso   1.00
C107   C     0.52302   0.08232   0.22142   0.00000  Uiso   1.00
N108   N     0.52199   0.08496   0.26396   0.00000  Uiso   1.00
N109   N     0.51213   0.12103   0.28207   0.00000  Uiso   1.00
C110   C     0.53595   0.04298   0.20142   0.00000  Uiso   1.00
N111   N     0.53911   0.00669   0.22418   0.00000  Uiso   1.00
N112   N     0.55373   0.97166   0.20669   0.00000  Uiso   1.00
C113   C     0.56583   0.97171   0.16578   0.00000  Uiso   1.00
N114   N     0.56225   1.00791   0.14300   0.00000  Uiso   1.00
N115   N     0.54727   0.04277   0.16034   0.00000  Uiso   1.00
C116   C     0.73212   0.27310   0.57322   0.00000  Uiso   1.00
N117   N     0.75042   0.25839   0.53777   0.00000  Uiso   1.00
N118   N     0.78409   0.23304   0.54006   0.00000  Uiso   1.00
C119   C     0.80112   0.22215   0.57787   0.00000  Uiso   1.00
N120   N     0.78349   0.23769   0.61332   0.00000  Uiso   1.00
N121   N     0.74931   0.26242   0.61107   0.00000  Uiso   1.00
C122   C     0.69121   0.29445   0.57058   0.00000  Uiso   1.00
N123   N     0.66200   0.28640   0.59995   0.00000  Uiso   1.00
N124   N     0.62264   0.29900   0.59368   0.00000  Uiso   1.00
C125   C     0.61125   0.32077   0.55819   0.00000  Uiso   1.00
N126   N     0.64074   0.33007   0.52954   0.00000  Uiso   1.00
N127   N     0.67996   0.31685   0.53546   0.00000  Uiso   1.00
C128   C     0.56748   0.32678   0.54686   0.00000  Uiso   1.00
N129   N     0.55490   0.35693   0.51854   0.00000  Uiso   1.00
N130   N     0.51717   0.35718   0.50181   0.00000  Uiso   1.00
C131   C     0.49100   0.32687   0.51226   0.00000  Uiso   1.00
N132   N     0.50324   0.29726   0.54122   0.00000  Uiso   1.00
N133   N     0.54067   0.29744   0.55849   0.00000  Uiso   1.00
C134   C     0.77533   0.07986   0.77441   0.00000  Uiso   1.00
N135   N     0.76990   0.06184   0.73668   0.00000  Uiso   1.00
N136   N     0.79107   0.07395   0.70287   0.00000  Uiso   1.00
C137   C     0.81824   0.10465   0.70566   0.00000  Uiso   1.00
N138   N     0.82300   0.12306   0.74322   0.00000  Uiso   1.00
N139   N     0.80198   0.11094   0.77692   0.00000  Uiso   1.00
C140   C     0.75623   0.06342   0.81280   0.00000  Uiso   1.00
N141   N     0.76822   0.07641   0.85106   0.00000  Uiso   1.00
N142   N     0.75400   0.05894   0.88622   0.00000  Uiso   1.00
C143   C     0.72714   1.02791   0.88441   0.00000  Uiso   1.00
N144   N     0.71468   1.01533   0.84617   0.00000  Uiso   1.00
N145   N     0.72908   1.03265   0.81099   0.00000  Uiso   1.00
C146   C     0.71364   1.00662   0.92295   0.00000  Uiso   1.00
N147   N     0.68480   0.97747   0.92112   0.00000  Uiso   1.00
N148   N     0.67390   0.95656   0.95565   0.00000  Uiso   1.00
C149   C     0.69163   0.96383   0.99324   0.00000  Uiso   1.00
N150   N     0.72033   0.99314   0.99523   0.00000  Uiso   1.00
N151   N     0.73110   1.01422   0.96067   0.00000  Uiso   1.00
C152   C     0.82839   1.02525   0.41367   0.00000  Uiso   1.00
N153   N     0.85009   1.00268   0.44356   0.00000  Uiso   1.00
N154   N     0.86082   1.02013   0.47935   0.00000  Uiso   1.00
C155   C     0.84963   0.06056   0.48666   0.00000  Uiso   1.00
N156   N     0.82759   0.08283   0.45698   0.00000  Uiso   1.00
N157   N     0.81731   0.06558   0.42112   0.00000  Uiso   1.00
C158   C     0.81683   1.00702   0.37378   0.00000  Uiso   1.00
N159   N     0.80624   0.03223   0.34037   0.00000  Uiso   1.00
N160   N     0.79401   1.01636   0.30443   0.00000  Uiso   1.00
C161   C     0.79158   0.97466   0.30066   0.00000  Uiso   1.00
N162   N     0.80230   0.94933   0.33404   0.00000  Uiso   1.00
N163   N     0.81500   0.96521   0.36990   0.00000  Uiso   1.00
C164   C     0.77475   0.95775   0.26214   0.00000  Uiso   1.00
N165   N     0.75961   0.91916   0.26260   0.00000  Uiso   1.00
N166   N     0.74032   0.90545   0.22903   0.00000  Uiso   1.00
C167   C     0.73596   0.92961   0.19363   0.00000  Uiso   1.00
N168   N     0.75183   0.96788   0.19281   0.00000  Uiso   1.00
N169   N     0.77073   0.98178   0.22658   0.00000  Uiso   1.00
C170   C     0.33444   0.47535   0.54944   0.00000  Uiso   1.00
N171   N     0.36292   0.44321   0.55338   0.00000  Uiso   1.00
N172   N     0.37708   0.42339   0.51963   0.00000  Uiso   1.00
C173   C     0.36307   0.43464   0.48063   0.00000  Uiso   1.00
N174   N     0.33514   0.46733   0.47651   0.00000  Uiso   1.00
N175   N     0.32128   0.48751   0.51032   0.00000  Uiso   1.00
C176   C     0.31477   0.49290   0.58717   0.00000  Uiso   1.00
N177   N     0.29435   0.53079   0.58602   0.00000  Uiso   1.00
N178   N     0.27401   0.54476   0.61979   0.00000  Uiso   1.00
C179   C     0.27283   0.52105   0.65560   0.00000  Uiso   1.00
N180   N     0.29328   0.48327   0.65672   0.00000  Uiso   1.00
N181   N     0.31412   0.46962   0.62325   0.00000  Uiso   1.00
C182   C     0.24737   0.53441   0.69145   0.00000  Uiso   1.00
N183   N     0.22764   0.50578   0.71502   0.00000  Uiso   1.00
N184   N     0.20271   0.51755   0.74636   0.00000  Uiso   1.00
C185   C     0.19724   0.55834   0.75576   0.00000  Uiso   1.00
N186   N     0.21744   0.58700   0.73264   0.00000  Uiso   1.00
N187   N     0.24179   0.57528   0.70074   0.00000  Uiso   1.00
C188   C     0.21181   0.50199   0.03471   0.00000  Uiso   1.00
N189   N     0.18560   0.48322   1.00850   0.00000  Uiso   1.00
N190   N     0.17226   0.50263   0.97306   0.00000  Uiso   1.00
C191   C     0.18479   0.54136   0.96279   0.00000  Uiso   1.00
N192   N     0.21130   0.55953   0.98879   0.00000  Uiso   1.00
N193   N     0.22468   0.54022   0.02381   0.00000  Uiso   1.00
C194   C     0.22533   0.48351   0.07545   0.00000  Uiso   1.00
N195   N     0.24966   0.50587   0.10010   0.00000  Uiso   1.00
N196   N     0.26233   0.49115   0.13742   0.00000  Uiso   1.00
C197   C     0.25117   0.45340   0.15194   0.00000  Uiso   1.00
N198   N     0.22670   0.43066   0.12740   0.00000  Uiso   1.00
N199   N     0.21385   0.44555   0.08977   0.00000  Uiso   1.00
C200   C     0.26783   0.43791   0.19273   0.00000  Uiso   1.00
N201   N     0.25917   0.40006   0.20970   0.00000  Uiso   1.00
N202   N     0.27721   0.38641   0.24558   0.00000  Uiso   1.00
C203   C     0.30440   0.41025   0.26549   0.00000  Uiso   1.00
N204   N     0.31250   0.44799   0.24864   0.00000  Uiso   1.00
N205   N     0.29446   0.46162   0.21320   0.00000  Uiso   1.00
C206   C     0.18609   0.32375   0.46246   0.00000  Uiso   1.00
N207   N     0.21211   0.33177   0.49436   0.00000  Uiso   1.00
N208   N     0.25249   0.33430   0.48744   0.00000  Uiso   1.00
C209   C     0.26828   0.32940   0.44824   0.00000  Uiso   1.00
N210   N     0.24214   0.32258   0.41604   0.00000  Uiso   1.00
N211   N     0.20175   0.31957   0.42306   0.00000  Uiso   1.00
C212   C     0.14318   0.31412   0.47195   0.00000  Uiso   1.00
N213   N     0.12103   0.29194   0.44483   0.00000  Uiso   1.00
N214   N     0.08482   0.27717   0.45645   0.00000  Uiso   1.00
C215   C     0.06940   0.28434   0.49551   0.00000  Uiso   1.00
N216   N     0.09101   0.30759   0.52205   0.00000  Uiso   1.00
N217   N     0.12727   0.32204   0.51058   0.00000  Uiso   1.00
C218   C     0.03345   0.26265   0.51145   0.00000  Uiso   1.00
N219   N     0.02054   0.26880   0.55151   0.00000  Uiso   1.00
N220   N     0.99264   0.24479   0.56904   0.00000  Uiso   1.00
C221   C     0.97651   0.21366   0.54723   0.00000  Uiso   1.00
N222   N     0.98857   0.20806   0.50673   0.00000  Uiso   1.00
N223   N     1.01661   0.23213   0.48915   0.00000  Uiso   1.00
C224   C     0.93956   0.92364   0.69257   0.00000  Uiso   1.00
N225   N     0.94127   0.93837   0.65223   0.00000  Uiso   1.00
N226   N     0.93697   0.97919   0.64381   0.00000  Uiso   1.00
C227   C     0.93122   0.00655   0.67547   0.00000  Uiso   1.00
N228   N     0.92870   0.99168   0.71551   0.00000  Uiso   1.00
N229   N     0.93266   0.95105   0.72385   0.00000  Uiso   1.00
C230   C     0.95185   0.88033   0.70388   0.00000  Uiso   1.00
N231   N     0.95465   0.86924   0.74516   0.00000  Uiso   1.00
N232   N     0.97335   0.83334   0.75716   0.00000  Uiso   1.00
C233   C     0.98951   0.80675   0.72840   0.00000  Uiso   1.00
N234   N     0.98547   0.81690   0.68686   0.00000  Uiso   1.00
N235   N     0.96699   0.85322   0.67480   0.00000  Uiso   1.00
C236   C     0.01797   0.77305   0.74329   0.00000  Uiso   1.00
N237   N     0.01328   0.73251   0.73392   0.00000  Uiso   1.00
N238   N     0.03728   0.70248   0.75242   0.00000  Uiso   1.00
C239   C     0.06695   0.71225   0.78032   0.00000  Uiso   1.00
N240   N     0.07201   0.75280   0.78858   0.00000  Uiso   1.00
N241   N     0.04788   0.78253   0.77064   0.00000  Uiso   1.00
C242   C     0.96754   0.45350   0.81940   0.00000  Uiso   1.00
N243   N     0.97381   0.46853   0.85831   0.00000  Uiso   1.00
N244   N     1.00075   0.49800   0.86397   0.00000  Uiso   1.00
C245   C     0.02306   0.51260   0.83107   0.00000  Uiso   1.00
N246   N     0.01656   0.49782   0.79221   0.00000  Uiso   1.00
N247   N     0.98915   0.46892   0.78645   0.00000  Uiso   1.00
C248   C     0.94335   0.41676   0.81366   0.00000  Uiso   1.00
N249   N     0.92593   0.40985   0.77582   0.00000  Uiso   1.00
N250   N     0.91186   0.37275   0.76736   0.00000  Uiso   1.00
C251   C     0.91509   0.34108   0.79623   0.00000  Uiso   1.00
N252   N     0.93117   0.34843   0.83461   0.00000  Uiso   1.00
N253   N     0.94476   0.38570   0.84327   0.00000  Uiso   1.00
C254   C     0.91091   0.29844   0.78247   0.00000  Uiso   1.00
N255   N     0.94008   0.26875   0.79411   0.00000  Uiso   1.00
N256   N     0.94333   0.23275   0.77434   0.00000  Uiso   1.00
C257   C     0.91701   0.22481   0.74274   0.00000  Uiso   1.00
N258   N     0.88660   0.25369   0.73229   0.00000  Uiso   1.00
N259   N     0.88392   0.29009   0.75146   0.00000  Uiso   1.00
C260   C     0.80629   0.73518   0.05611   0.00000  Uiso   1.00
N261   N     0.80164   0.74919   0.09583   0.00000  Uiso   1.00
N262   N     0.76645   0.76873   0.10758   0.00000  Uiso   1.00
C263   C     0.73459   0.77490   0.08014   0.00000  Uiso   1.00
N264   N     0.73898   0.76045   0.04057   0.00000  Uiso   1.00
N265   N     0.77405   0.74051   1.02891   0.00000  Uiso   1.00
C266   C     0.84697   0.71944   1.04128   0.00000  Uiso   1.00
N267   N     0.85069   0.69990   1.00402   0.00000  Uiso   1.00
N268   N     0.88789   0.68918   0.98864   0.00000  Uiso   1.00
C269   C     0.92278   0.69820   1.00956   0.00000  Uiso   1.00
N270   N     0.91911   0.71753   0.04696   0.00000  Uiso   1.00
N271   N     0.88186   0.72780   0.06261   0.00000  Uiso   1.00
C272   C     0.96355   0.68874   0.99077   0.00000  Uiso   1.00
N273   N     0.99787   0.70756   1.00393   0.00000  Uiso   1.00
N274   N     0.03426   0.70049   0.98484   0.00000  Uiso   1.00
C275   C     0.03750   0.67399   0.95224   0.00000  Uiso   1.00
N276   N     1.00325   0.65509   0.93944   0.00000  Uiso   1.00
N277   N     0.96694   0.66251   0.95809   0.00000  Uiso   1.00
C278   C     0.55988   0.68681   0.26188   0.00000  Uiso   1.00
N279   N     0.53546   0.70827   0.23362   0.00000  Uiso   1.00
N280   N     0.54788   0.74284   0.21510   0.00000  Uiso   1.00
C281   C     0.58529   0.75756   0.22391   0.00000  Uiso   1.00
N282   N     0.60969   0.73684   0.25308   0.00000  Uiso   1.00
N283   N     0.59705   0.70204   0.27197   0.00000  Uiso   1.00
C284   C     0.54678   0.64587   0.27680   0.00000  Uiso   1.00
N285   N     0.56480   0.62443   0.30987   0.00000  Uiso   1.00
N286   N     0.55180   0.58698   0.32154   0.00000  Uiso   1.00
C287   C     0.52076   0.56972   0.30010   0.00000  Uiso   1.00
N288   N     0.50338   0.59116   0.26701   0.00000  Uiso   1.00
N289   N     0.51601   0.62836   0.25568   0.00000  Uiso   1.00
C290   C     0.50424   0.52916   0.31145   0.00000  Uiso   1.00
N291   N     0.47726   0.51288   0.28454   0.00000  Uiso   1.00
N292   N     0.45801   0.47861   0.29473   0.00000  Uiso   1.00
C293   C     0.46493   0.45887   0.33226   0.00000  Uiso   1.00
N294   N     0.49263   0.47444   0.35921   0.00000  Uiso   1.00
N295   N     0.51208   0.50906   0.34892   0.00000  Uiso   1.00
loop_
_geom_bond_atom_site_label_1
_geom_bond_atom_site_label_2
_geom_bond_distance
_geom_bond_site_symmetry_2
_ccdc_geom_bond_type
C0     O11     1.264   .     A
C0     O12     1.269   .     A
C0     C245    1.461   .     S
Sm1    O5      2.259   .     S
Sm1    O6      2.269   .     S
Sm1    O8      2.223   .     S
Sm1    O9      2.249   .     S
Sm1    O10     2.295   .     S
Sm1    O13     2.222   .     S
Sm2    O7      2.273   .     S
Sm2    O11     2.260   .     S
Sm2    O12     2.258   .     S
Sm2    O14     2.275   .     S
Sm2    O15     2.259   .     S
Sm2    O16     2.257   .     S
C3     O13     1.268   .     A
C3     O14     1.276   .     A
C3     C191    1.469   .     S
C4     O15     1.266   .     A
C4     O16     1.269   .     A
C4     C185    1.464   .     S
O5     C17     1.259   .     A
O6     C17     1.265   .     A
O7     C18     1.277   .     A
O8     C18     1.271   .     A
O9     C19     1.252   .     A
O10    C19     1.265   .     A
C17    C95     1.466   .     S
C18    C239    1.466   .     S
C19    C275    1.467   .     S
C20    O31     1.269   .     A
C20    O32     1.264   .     A
C20    C281    1.467   .     S
Sm21   O25     2.247   .     S
Sm21   O26     2.265   .     S
Sm21   O28     2.234   .     S
Sm21   O29     2.251   .     S
Sm21   O30     2.271   .     S
Sm21   O33     2.230   .     S
Sm22   O27     2.271   .     S
Sm22   O31     2.298   .     S
Sm22   O32     2.244   .     S
Sm22   O34     2.267   .     S
Sm22   O35     2.245   .     S
Sm22   O36     2.300   .     S
C23    O33     1.269   .     A
C23    O34     1.275   .     A
C23    C263    1.460   .     S
C24    O35     1.264   .     A
C24    O36     1.269   .     A
C24    C83     1.471   .     S
O25    C37     1.264   .     A
O26    C37     1.269   .     A
O27    C38     1.278   .     A
O28    C38     1.270   .     A
O29    C39     1.262   .     A
O30    C39     1.269   .     A
C37    C149    1.464   1_554 S
C38    C113    1.470   .     S
C39    C167    1.464   .     S
C40    O51     1.268   .     A
C40    O52     1.268   .     A
C40    C155    1.464   .     S
Sm41   O45     2.278   .     S
Sm41   O46     2.260   .     S
Sm41   O48     2.309   .     S
Sm41   O49     2.249   .     S
Sm41   O50     2.219   .     S
Sm41   O53     2.285   .     S
Sm42   O47     2.221   .     S
Sm42   O51     2.270   .     S
Sm42   O52     2.251   .     S
Sm42   O54     2.212   .     S
Sm42   O55     2.274   .     S
Sm42   O56     2.263   .     S
C43    O53     1.277   .     A
C43    O54     1.265   .     A
C43    C221    1.467   .     S
C44    O55     1.264   .     A
C44    O56     1.267   .     A
C44    C119    1.461   .     S
O45    C57     1.268   .     A
O46    C57     1.261   .     A
O47    C58     1.270   .     A
O48    C58     1.288   .     A
O49    C59     1.280   .     A
O50    C59     1.277   .     A
C57    C257    1.458   .     S
C58    C137    1.467   .     S
C59    C227    1.464   .     S
C60    O71     1.268   .     A
C60    O72     1.265   .     A
C60    C203    1.465   .     S
Sm61   O65     2.280   .     S
Sm61   O66     2.261   .     S
Sm61   O68     2.314   .     S
Sm61   O69     2.233   .     S
Sm61   O70     2.224   .     S
Sm61   O73     2.291   .     S
Sm62   O67     2.216   .     S
Sm62   O71     2.294   .     S
Sm62   O72     2.247   .     S
Sm62   O74     2.209   .     S
Sm62   O75     2.299   .     S
Sm62   O76     2.245   .     S
C63    O73     1.280   .     A
C63    O74     1.266   .     A
C63    C101    1.469   .     S
C64    O75     1.269   .     A
C64    O76     1.264   .     A
C64    C293    1.468   .     S
O65    C77     1.269   .     A
O66    C77     1.259   .     A
O67    C78     1.270   .     A
O68    C78     1.289   .     A
O69    C79     1.281   .     A
O70    C79     1.280   .     A
C77    C131    1.461   .     S
C78    C173    1.469   .     S
C79    C209    1.464   .     S
C80    N81     1.362   .     A
C80    C86     1.469   .     S
C80    N85     1.353   1_556 A
N81    N82     1.339   .     A
N82    C83     1.361   1_556 A
C83    N84     1.355   .     A
C83    N82     1.361   1_554 A
N84    N85     1.327   .     A
N85    C80     1.353   1_554 A
C86    N87     1.356   .     A
C86    N91     1.360   .     A
N87    N88     1.328   .     A
N88    C89     1.355   .     A
C89    N90     1.362   .     A
C89    C92     1.473   .     S
N90    N91     1.338   .     A
C92    N93     1.358   .     A
C92    N97     1.358   .     A
N93    N94     1.335   .     A
N94    C95     1.360   .     A
C95    N96     1.354   .     A
N96    N97     1.331   .     A
C98    N99     1.358   .     A
C98    N103    1.359   .     A
C98    C104    1.474   .     S
N99    N100    1.332   .     A
N100   C101    1.357   .     A
C101   N102    1.359   .     A
N102   N103    1.334   .     A
C104   N105    1.359   .     A
C104   N109    1.359   .     A
N105   N106    1.334   .     A
N106   C107    1.359   .     A
C107   N108    1.358   .     A
C107   C110    1.472   .     S
N108   N109    1.333   .     A
C110   N111    1.360   .     A
C110   N115    1.357   .     A
N111   N112    1.335   1_545 A
N112   C113    1.358   .     A
N112   N111    1.335   1_565 A
C113   N114    1.358   .     A
N114   N115    1.332   1_565 A
N115   N114    1.332   1_545 A
C116   N117    1.357   .     A
C116   N121    1.358   .     A
C116   C122    1.464   .     S
N117   N118    1.331   .     A
N118   C119    1.356   .     A
C119   N120    1.358   .     A
N120   N121    1.333   .     A
C122   N123    1.357   .     A
C122   N127    1.357   .     A
N123   N124    1.332   .     A
N124   C125    1.358   .     A
C125   N126    1.357   .     A
C125   C128    1.465   .     S
N126   N127    1.332   .     A
C128   N129    1.358   .     A
C128   N133    1.357   .     A
N129   N130    1.333   .     A
N130   C131    1.357   .     A
C131   N132    1.356   .     A
N132   N133    1.332   .     A
C134   N135    1.360   .     A
C134   N139    1.355   .     A
C134   C140    1.467   .     S
N135   N136    1.335   .     A
N136   C137    1.358   .     A
C137   N138    1.358   .     A
N138   N139    1.330   .     A
C140   N141    1.359   .     A
C140   N145    1.357   1_545 A
N141   N142    1.332   .     A
N142   C143    1.357   1_545 A
C143   N144    1.359   .     A
C143   C146    1.467   .     S
C143   N142    1.357   1_565 A
N144   N145    1.332   .     A
N145   C140    1.357   1_565 A
C146   N147    1.356   .     A
C146   N151    1.359   .     A
N147   N148    1.331   .     A
N148   C149    1.357   .     A
C149   N150    1.357   .     A
C149   C37     1.464   1_556 S
N150   N151    1.333   .     A
C152   N153    1.360   .     A
C152   C158    1.466   .     S
C152   N157    1.356   1_565 A
N153   N154    1.335   .     A
N154   C155    1.359   1_565 A
C155   N156    1.356   .     A
C155   N154    1.359   1_545 A
N156   N157    1.329   .     A
N157   C152    1.356   1_545 A
C158   N163    1.358   .     A
C158   N159    1.357   1_565 A
N159   C158    1.357   1_545 A
N159   N160    1.331   1_545 A
N160   C161    1.356   .     A
N160   N159    1.331   1_565 A
C161   N162    1.359   .     A
C161   C164    1.468   .     S
N162   N163    1.334   .     A
C164   N165    1.356   .     A
C164   N169    1.359   .     A
N165   N166    1.332   .     A
N166   C167    1.357   .     A
C167   N168    1.356   .     A
N168   N169    1.333   .     A
C170   N171    1.356   .     A
C170   N175    1.359   .     A
C170   C176    1.469   .     S
N171   N172    1.330   .     A
N172   C173    1.357   .     A
C173   N174    1.359   .     A
N174   N175    1.335   .     A
C176   N177    1.359   .     A
C176   N181    1.357   .     A
N177   N178    1.334   .     A
N178   C179    1.358   .     A
C179   N180    1.357   .     A
C179   C182    1.466   .     S
N180   N181    1.331   .     A
C182   N183    1.357   .     A
C182   N187    1.358   .     A
N183   N184    1.332   .     A
N184   C185    1.356   .     A
C185   N186    1.358   .     A
N186   N187    1.334   .     A
C188   N193    1.355   .     A
C188   C194    1.472   .     S
C188   N189    1.361   1_554 A
N189   N190    1.339   .     A
N189   C188    1.361   1_556 A
N190   C191    1.361   .     A
C191   N192    1.354   .     A
N192   N193    1.326   1_556 A
N193   N192    1.326   1_554 A
C194   N195    1.354   .     A
C194   N199    1.362   .     A
N195   N196    1.327   .     A
N196   C197    1.355   .     A
C197   N198    1.362   .     A
C197   C200    1.473   .     S
N198   N199    1.339   .     A
C200   N201    1.362   .     A
C200   N205    1.355   .     A
N201   N202    1.339   .     A
N202   C203    1.361   .     A
C203   N204    1.353   .     A
N204   N205    1.327   .     A
C206   N207    1.357   .     A
C206   N211    1.358   .     A
C206   C212    1.466   .     S
N207   N208    1.331   .     A
N208   C209    1.356   .     A
C209   N210    1.358   .     A
N210   N211    1.334   .     A
C212   N213    1.359   .     A
C212   N217    1.356   .     A
N213   N214    1.334   .     A
N214   C215    1.358   .     A
C215   N216    1.357   .     A
C215   C218    1.468   .     S
N216   N217    1.330   .     A
C218   N219    1.356   .     A
C218   N223    1.359   1_455 A
N219   N220    1.330   1_455 A
N220   C221    1.356   .     A
N220   N219    1.330   1_655 A
C221   N222    1.359   .     A
N222   N223    1.335   .     A
N223   C218    1.359   1_655 A
C224   N225    1.360   .     A
C224   N229    1.356   .     A
C224   C230    1.468   .     S
N225   N226    1.336   .     A
N226   C227    1.359   1_565 A
C227   N226    1.359   1_545 A
C227   N228    1.354   1_545 A
N228   N229    1.328   .     A
N228   C227    1.354   1_565 A
C230   N231    1.355   .     A
C230   N235    1.361   .     A
N231   N232    1.327   .     A
N232   C233    1.354   .     A
C233   N234    1.359   .     A
C233   C236    1.461   1_655 S
N234   N235    1.337   .     A
C236   N237    1.360   .     A
C236   N241    1.353   .     A
C236   C233    1.461   1_455 S
N237   N238    1.338   .     A
N238   C239    1.361   .     A
C239   N240    1.354   .     A
N240   N241    1.326   .     A
C242   N243    1.358   .     A
C242   N247    1.357   .     A
C242   C248    1.463   .     S
N243   N244    1.334   .     A
N244   C245    1.358   1_655 A
C245   N246    1.355   .     A
C245   N244    1.358   1_455 A
N246   N247    1.331   1_455 A
N247   N246    1.331   1_655 A
C248   N249    1.357   .     A
C248   N253    1.357   .     A
N249   N250    1.331   .     A
N250   C251    1.357   .     A
C251   N252    1.358   .     A
C251   C254    1.462   .     S
N252   N253    1.332   .     A
C254   N255    1.357   .     A
C254   N259    1.359   .     A
N255   N256    1.330   .     A
N256   C257    1.355   .     A
C257   N258    1.358   .     A
N258   N259    1.332   .     A
C260   N261    1.357   .     A
C260   N265    1.359   1_554 A
C260   C266    1.469   1_554 S
N261   N262    1.332   .     A
N262   C263    1.357   .     A
C263   N264    1.357   .     A
N264   N265    1.333   1_554 A
N265   C260    1.359   1_556 A
N265   N264    1.333   1_556 A
C266   N267    1.357   .     A
C266   C260    1.469   1_556 S
C266   N271    1.359   1_556 A
N267   N268    1.332   .     A
N268   C269    1.358   .     A
C269   C272    1.469   .     S
C269   N270    1.357   1_556 A
N270   N271    1.333   .     A
N270   C269    1.357   1_554 A
N271   C266    1.359   1_554 A
C272   N273    1.361   .     A
C272   N277    1.355   .     A
N273   N274    1.336   1_655 A
N274   C275    1.358   .     A
N274   N273    1.336   1_455 A
C275   N276    1.357   1_455 A
N276   N277    1.329   .     A
N276   C275    1.357   1_655 A
C278   N279    1.354   .     A
C278   N283    1.362   .     A
C278   C284    1.471   .     S
N279   N280    1.326   .     A
N280   C281    1.353   .     A
C281   N282    1.362   .     A
N282   N283    1.340   .     A
C284   N285    1.362   .     A
C284   N289    1.354   .     A
N285   N286    1.339   .     A
N286   C287    1.362   .     A
C287   N288    1.354   .     A
C287   C290    1.471   .     S
N288   N289    1.325   .     A
C290   N291    1.355   .     A
C290   N295    1.362   .     A
N291   N292    1.326   .     A
N292   C293    1.354   .     A
C293   N294    1.362   .     A
N294   N295    1.339   .     A
