data_lcy+N144+E183
_audit_creation_date              2025-01-21
_audit_creation_method            'Materials Studio'
_symmetry_space_group_name_H-M    'P1'
_symmetry_Int_Tables_number       1
_symmetry_cell_setting            triclinic
loop_
_symmetry_equiv_pos_as_xyz
  x,y,z
_cell_length_a                    20.0991
_cell_length_b                    22.1019
_cell_length_c                    22.0576
_cell_angle_alpha                 89.9953
_cell_angle_beta                  89.5008
_cell_angle_gamma                 85.0329
loop_
_atom_site_label
_atom_site_type_symbol
_atom_site_fract_x
_atom_site_fract_y
_atom_site_fract_z
_atom_site_U_iso_or_equiv
_atom_site_adp_type
_atom_site_occupancy
C0     C     0.24369   0.69527   0.95293   0.00000  Uiso   1.00
Er1    Er    0.09869   0.57868   0.81529   0.00000  Uiso   1.00
Er2    Er    0.17528   0.63515   0.85046   0.00000  Uiso   1.00
C3     C     0.04347   0.64519   0.92250   0.00000  Uiso   1.00
O4     O     0.22074   0.56019   0.90131   0.00000  Uiso   1.00
C5     C     0.08432   0.70753   0.76616   0.00000  Uiso   1.00
C6     C     0.22135   0.57771   0.73190   0.00000  Uiso   1.00
C7     C     0.06134   0.49307   0.74359   0.00000  Uiso   1.00
O8     O     0.21859   0.65514  -0.01951   0.00000  Uiso   1.00
O9     O     0.24573   0.69501   0.88979   0.00000  Uiso   1.00
O10    O     0.24114   0.61486   0.77069   0.00000  Uiso   1.00
O11    O     0.17090   0.54886   0.74487   0.00000  Uiso   1.00
O12    O     0.13230   0.71129   0.80203   0.00000  Uiso   1.00
O13    O     0.06171   0.65574   0.75688   0.00000  Uiso   1.00
C14    C     0.18833   0.51493   0.91246   0.00000  Uiso   1.00
O15    O     0.13583   0.50780   0.88164   0.00000  Uiso   1.00
O16    O     0.10347   0.65953   0.92573   0.00000  Uiso   1.00
O17    O     0.02757   0.61143   0.88047   0.00000  Uiso   1.00
O18    O     0.11885   0.51264   0.74145   0.00000  Uiso   1.00
O19    O     1.02343   0.52220   0.78096   0.00000  Uiso   1.00
C20    C     0.80337   0.96533   0.20714   0.00000  Uiso   1.00
Er21   Er    0.61944   0.83843   0.12827   0.00000  Uiso   1.00
Er22   Er    0.71087   0.87164   0.16955   0.00000  Uiso   1.00
C23    C     0.68838   0.90894   0.03721   0.00000  Uiso   1.00
O24    O     0.65628   0.95465   0.19936   0.00000  Uiso   1.00
C25    C     0.74696   0.75413   0.10885   0.00000  Uiso   1.00
C26    C     0.64030   0.79124   0.25537   0.00000  Uiso   1.00
C27    C     0.49300   0.84912   1.10317   0.00000  Uiso   1.00
O28    O     0.82168  -0.00229   0.16651   0.00000  Uiso   1.00
O29    O     0.80705   0.90284   0.19906   0.00000  Uiso   1.00
O30    O     0.69094   0.82258   0.25383   0.00000  Uiso   1.00
O31    O     0.59985   0.79339   0.21157   0.00000  Uiso   1.00
O32    O     0.77089   0.79267   0.14207   0.00000  Uiso   1.00
O33    O     0.68493   0.75947   0.09674   0.00000  Uiso   1.00
C34    C     0.59496   0.96524   0.18778   0.00000  Uiso   1.00
O35    O     0.56411   0.92423   0.16132   0.00000  Uiso   1.00
O36    O     0.72761   0.91421   0.08171   0.00000  Uiso   1.00
O37    O     0.63723   0.88047   0.04364   0.00000  Uiso   1.00
O38    O     0.52057   0.88893   0.13363   0.00000  Uiso   1.00
O39    O     0.53251   0.80403   1.08861   0.00000  Uiso   1.00
C40    C     0.92881   0.20983   0.79095   0.00000  Uiso   1.00
Er41   Er    0.82080   0.08803   0.62304   0.00000  Uiso   1.00
Er42   Er    0.84550   0.14739   0.69749   0.00000  Uiso   1.00
C43    C     0.92410   0.02335   0.69821   0.00000  Uiso   1.00
O44    O     0.92532   0.18125   0.64578   0.00000  Uiso   1.00
C45    C     0.74828   0.06329   0.73823   0.00000  Uiso   1.00
C46    C     0.73015   0.20579   0.62846   0.00000  Uiso   1.00
C47    C     0.75643   0.06113   0.52612   0.00000  Uiso   1.00
O48    O     0.95544   0.19408   0.83826   0.00000  Uiso   1.00
O49    O     0.86296   0.19783   0.78183   0.00000  Uiso   1.00
O50    O     0.77408   0.22062   0.66563   0.00000  Uiso   1.00
O51    O     0.73652   0.15357   0.60363   0.00000  Uiso   1.00
O52    O     0.76589   0.11555   0.74795   0.00000  Uiso   1.00
O53    O     0.75834   0.03938   0.68593   0.00000  Uiso   1.00
C54    C     0.93010   0.17068   0.58926   0.00000  Uiso   1.00
O55    O     0.88960   0.13640   0.56487   0.00000  Uiso   1.00
O56    O     0.91222   0.07022   0.73161   0.00000  Uiso   1.00
O57    O     0.90145   0.02360   0.64543   0.00000  Uiso   1.00
O58    O     0.73984   0.10849   0.55662   0.00000  Uiso   1.00
O59    O     0.80162   1.02687   0.55022   0.00000  Uiso   1.00
C60    C     0.22849   0.31141   0.43982   0.00000  Uiso   1.00
Er61   Er    0.42193   0.41115   0.32237   0.00000  Uiso   1.00
Er62   Er    0.33382   0.35728   0.35194   0.00000  Uiso   1.00
C63    C     0.45276   0.34633   0.43930   0.00000  Uiso   1.00
O64    O     0.29091   0.43491   0.40288   0.00000  Uiso   1.00
C65    C     0.43122   0.27873   0.27645   0.00000  Uiso   1.00
C66    C     0.31052   0.42053   0.22921   0.00000  Uiso   1.00
C67    C     0.48666   0.51038   0.32357   0.00000  Uiso   1.00
O68    O     0.26197   0.34017   0.47319   0.00000  Uiso   1.00
O69    O     0.24737   0.30444   0.37906   0.00000  Uiso   1.00
O70    O     0.28193   0.38779   0.26784   0.00000  Uiso   1.00
O71    O     0.36621   0.44073   0.24225   0.00000  Uiso   1.00
O72    O     0.37581   0.27803   0.30390   0.00000  Uiso   1.00
O73    O     0.46051   0.32771   0.27450   0.00000  Uiso   1.00
C74    C     0.32446   0.47978   0.41276   0.00000  Uiso   1.00
O75    O     0.37729   0.48606   0.38118   0.00000  Uiso   1.00
O76    O     0.39427   0.32832   0.43226   0.00000  Uiso   1.00
O77    O     0.47649   0.38046   0.40016   0.00000  Uiso   1.00
O78    O     0.43048   0.50600   0.34969   0.00000  Uiso   1.00
O79    O     0.50679   0.46207   0.29587   0.00000  Uiso   1.00
C80    C     0.42395   0.85328   1.08463   0.00000  Uiso   1.00
C81    C     0.34671   0.82132   1.01029   0.00000  Uiso   1.00
C82    C     0.32897   0.79702   1.06396   0.00000  Uiso   1.00
S83    S     0.31476   0.79538   0.94582   0.00000  Uiso   1.00
S84    S     0.27518   0.74264   1.06353   0.00000  Uiso   1.00
S85    S     0.40974   0.86662   1.00932   0.00000  Uiso   1.00
S86    S     0.37134   0.81312   0.12681   0.00000  Uiso   1.00
C87    C     0.27388   0.74321   0.98581   0.00000  Uiso   1.00
C88    C     0.46222   0.22147   0.25051   0.00000  Uiso   1.00
C89    C     0.48119   0.11402   0.22046   0.00000  Uiso   1.00
C90    C     0.54249   0.13419   0.22787   0.00000  Uiso   1.00
S91    S     0.47627   0.03991   0.20109   0.00000  Uiso   1.00
S92    S     0.61036   0.08383   0.21941   0.00000  Uiso   1.00
S93    S     0.41325   0.16367   0.23319   0.00000  Uiso   1.00
S94    S     0.54766   0.20803   0.24736   0.00000  Uiso   1.00
C95    C     0.56175   0.02569   0.20246   0.00000  Uiso   1.00
C96    C     0.67108   0.24586   0.61276   0.00000  Uiso   1.00
C97    C     0.56078   0.27023   0.56800   0.00000  Uiso   1.00
C98    C     0.59997   0.31399   0.54961   0.00000  Uiso   1.00
S99    S     0.48352   0.26819   0.53707   0.00000  Uiso   1.00
S100   S     0.56987   0.36372   0.49669   0.00000  Uiso   1.00
S101   S     0.59497   0.21535   0.61448   0.00000  Uiso   1.00
S102   S     0.68014   0.31156   0.57359   0.00000  Uiso   1.00
C103   C     0.49681   0.32833   0.49048   0.00000  Uiso   1.00
C104   C     0.73060   0.03053   0.79279   0.00000  Uiso   1.00
C105   C     0.69630   0.96210   0.87093   0.00000  Uiso   1.00
C106   C     0.73607   0.00009   0.89869   0.00000  Uiso   1.00
S107   S     0.66218   0.91006   0.91469   0.00000  Uiso   1.00
S108   S     0.75140  -0.00673   0.97342   0.00000  Uiso   1.00
S109   S     0.68336   0.96955   0.79477   0.00000  Uiso   1.00
S110   S     0.76819   0.05373   0.85765   0.00000  Uiso   1.00
C111   C     0.70110   0.93533   0.97821   0.00000  Uiso   1.00
C112   C     0.73898   0.05361   0.46406   0.00000  Uiso   1.00
C113   C     0.76686   0.05173   0.35768   0.00000  Uiso   1.00
C114   C     0.74158   0.99814   0.37032   0.00000  Uiso   1.00
S115   S     0.79735   0.06255   0.28738   0.00000  Uiso   1.00
S116   S     0.74562   0.94393   0.31681   0.00000  Uiso   1.00
S117   S     0.77429   0.10148   0.41491   0.00000  Uiso   1.00
S118   S     0.71583   0.98474   0.44140   0.00000  Uiso   1.00
C119   C     0.78163   0.99041   0.26630   0.00000  Uiso   1.00
C120   C     0.30605   0.51895   0.46566   0.00000  Uiso   1.00
C121   C     0.24447   0.54898   0.55897   0.00000  Uiso   1.00
C122   C     0.30937   0.55470   0.57220   0.00000  Uiso   1.00
S123   S     0.18724   0.55872   0.61503   0.00000  Uiso   1.00
S124   S     0.32871   0.57193   0.64570   0.00000  Uiso   1.00
S125   S     0.22412   0.52612   0.48873   0.00000  Uiso   1.00
S126   S     0.36669   0.53824   0.51568   0.00000  Uiso   1.00
C127   C     0.24652   0.57115   0.66851   0.00000  Uiso   1.00
C128   C     0.21067   0.47689  -0.03467   0.00000  Uiso   1.00
C129   C     0.21537   0.44412   0.07350   0.00000  Uiso   1.00
C130   C     0.27849   0.45471   0.05723   0.00000  Uiso   1.00
S131   S     0.20125   0.42546   0.14779   0.00000  Uiso   1.00
S132   S     0.33848   0.45050   0.11096   0.00000  Uiso   1.00
S133   S     0.15456   0.45523   0.01950   0.00000  Uiso   1.00
S134   S     0.29358   0.47611  -0.01506   0.00000  Uiso   1.00
C135   C     0.28352   0.43234   0.16710   0.00000  Uiso   1.00
C136   C     0.16885   0.28456   0.46481   0.00000  Uiso   1.00
C137   C     0.06895   0.22814   0.48167   0.00000  Uiso   1.00
C138   C     0.08108   0.25612   0.53465   0.00000  Uiso   1.00
S139   S     1.00298   0.18377   0.47981   0.00000  Uiso   1.00
S140   S     0.03106   0.24591   0.59468   0.00000  Uiso   1.00
S141   S     0.12174   0.23875   0.42209   0.00000  Uiso   1.00
S142   S     0.14640   0.29920   0.53903   0.00000  Uiso   1.00
C143   C     0.98372   0.19852   0.55514   0.00000  Uiso   1.00
C144   C     0.95481   0.96509   0.71985   0.00000  Uiso   1.00
C145   C     0.97512   0.85420   0.72446   0.00000  Uiso   1.00
C146   C     0.03454   0.87722   0.73423   0.00000  Uiso   1.00
S147   S     0.97145   0.77737   0.72538   0.00000  Uiso   1.00
S148   S     0.10173   0.82786   0.74630   0.00000  Uiso   1.00
S149   S     0.90786   0.90389   0.71266   0.00000  Uiso   1.00
S150   S     0.03844   0.95391   0.73446   0.00000  Uiso   1.00
C151   C     0.05505   0.76577   0.74120   0.00000  Uiso   1.00
C152   C     0.04387   0.43716   0.71471   0.00000  Uiso   1.00
C153   C     0.97261   0.35410   0.71251   0.00000  Uiso   1.00
C154   C     1.03497   0.32893   0.72513   0.00000  Uiso   1.00
S155   S     0.90762   0.31166   0.72228   0.00000  Uiso   1.00
S156   S     1.04372   0.25821   0.75467   0.00000  Uiso   1.00
S157   S     0.96137   0.42967   0.70032   0.00000  Uiso   1.00
S158   S     0.09853   0.37401   0.72390   0.00000  Uiso   1.00
C159   C     0.95898   0.25403   0.75293   0.00000  Uiso   1.00
C160   C     0.79465   0.71047   0.07868   0.00000  Uiso   1.00
C161   C     0.87306   0.68813   0.99588   0.00000  Uiso   1.00
C162   C     0.90994   0.68044   1.04699   0.00000  Uiso   1.00
S163   S     0.91256   0.68351   0.92857   0.00000  Uiso   1.00
S164   S     0.99421   0.66460   1.04026   0.00000  Uiso   1.00
S165   S     0.78987   0.70654   0.00148   0.00000  Uiso   1.00
S166   S     0.86962   0.69052   0.11427   0.00000  Uiso   1.00
C167   C     0.98879   0.66779   0.96272   0.00000  Uiso   1.00
C168   C     0.62993   0.74532   0.30164   0.00000  Uiso   1.00
C169   C     0.60837   0.63794   0.31254   0.00000  Uiso   1.00
C170   C     0.55282   0.67044   0.33385   0.00000  Uiso   1.00
S171   S     0.60573   0.56201   0.30208   0.00000  Uiso   1.00
S172   S     0.48450   0.63306   0.35019   0.00000  Uiso   1.00
S173   S     0.67389   0.67610   0.28958   0.00000  Uiso   1.00
S174   S     0.55180   0.74727   0.33450   0.00000  Uiso   1.00
C175   C     0.52386   0.56510   0.32594   0.00000  Uiso   1.00
loop_
_geom_bond_atom_site_label_1
_geom_bond_atom_site_label_2
_geom_bond_distance
_geom_bond_site_symmetry_2
_ccdc_geom_bond_type
C0     O9      1.393   .     S
C0     C87     1.461   .     S
C0     O8      1.218   1_556 D
Er1    O11     2.179   .     S
Er1    O13     2.216   .     S
Er1    O15     2.229   .     S
Er1    O17     2.102   .     S
Er1    O18     2.199   .     S
Er1    O19     2.183   1_455 S
Er2    O4      2.143   .     S
Er2    O9      2.203   .     S
Er2    O10     2.215   .     S
Er2    O12     2.117   .     S
Er2    O16     2.226   .     S
C3     O16     1.276   .     A
C3     O17     1.251   .     A
C3     C167    1.460   1_455 S
O4     C14     1.263   .     A
C5     O12     1.261   .     A
C5     O13     1.285   .     A
C5     C151    1.477   .     S
C6     O10     1.276   .     A
C6     O11     1.274   .     A
C6     C127    1.485   .     S
C7     O18     1.269   .     A
C7     C152    1.461   .     S
C7     O19     1.257   1_455 A
O8     C0      1.218   1_554 D
C14    O15     1.281   .     A
C14    C128    1.487   1_556 S
O19    Er1     2.183   1_655 S
O19    C7      1.257   1_655 A
C20    O29     1.388   .     S
C20    C119    1.466   .     S
C20    O28     1.221   1_565 D
Er21   O31     2.139   .     S
Er21   O33     2.202   .     S
Er21   O35     2.233   .     S
Er21   O37     2.126   .     S
Er21   O38     2.196   .     S
Er21   O39     2.157   1_554 S
Er22   O24     2.154   .     S
Er22   O29     2.211   .     S
Er22   O30     2.203   .     S
Er22   O32     2.119   .     S
Er22   O36     2.190   .     S
C23    O36     1.276   .     A
C23    O37     1.258   .     A
C23    C111    1.456   1_554 S
O24    C34     1.263   .     A
C25    O32     1.253   .     A
C25    O33     1.273   .     A
C25    C160    1.457   .     S
C26    O30     1.280   .     A
C26    O31     1.266   .     A
C26    C168    1.466   .     S
C27    O39     1.259   .     A
C27    C80     1.446   .     S
C27    O38     1.274   1_556 A
O28    C20     1.221   1_545 D
C34    O35     1.285   .     A
C34    C95     1.476   1_565 S
O38    C27     1.274   1_554 A
O39    Er21    2.157   1_556 S
C40    O48     1.214   .     D
C40    O49     1.388   .     S
C40    C159    1.456   .     S
Er41   O51     2.177   .     S
Er41   O53     2.205   .     S
Er41   O55     2.220   .     S
Er41   O57     2.125   .     S
Er41   O58     2.216   .     S
Er41   O59     2.158   1_545 S
Er42   O44     2.147   .     S
Er42   O49     2.215   .     S
Er42   O50     2.189   .     S
Er42   O52     2.112   .     S
Er42   O56     2.212   .     S
C43    O56     1.276   .     A
C43    O57     1.254   .     A
C43    C144    1.461   1_545 S
O44    C54     1.270   .     A
C45    O52     1.256   .     A
C45    O53     1.276   .     A
C45    C104    1.462   .     S
C46    O50     1.274   .     A
C46    O51     1.273   .     A
C46    C96     1.462   .     S
C47    O58     1.263   .     A
C47    C112    1.429   .     S
C47    O59     1.253   1_545 A
C54    O55     1.281   .     A
C54    C143    1.486   .     S
O59    Er41    2.158   1_565 S
O59    C47     1.253   1_565 A
C60    O68     1.217   .     D
C60    O69     1.395   .     S
C60    C136    1.485   .     S
Er61   O71     2.171   .     S
Er61   O73     2.204   .     S
Er61   O75     2.225   .     S
Er61   O77     2.124   .     S
Er61   O78     2.203   .     S
Er61   O79     2.198   .     S
Er62   O64     2.163   .     S
Er62   O69     2.252   .     S
Er62   O70     2.213   .     S
Er62   O72     2.152   .     S
Er62   O76     2.220   .     S
C63    O76     1.284   .     A
C63    O77     1.264   .     A
C63    C103    1.474   .     S
O64    C74     1.266   .     A
C65    O72     1.264   .     A
C65    O73     1.277   .     A
C65    C88     1.475   .     S
C66    O70     1.282   .     A
C66    O71     1.276   .     A
C66    C135    1.493   .     S
C67    O78     1.274   .     A
C67    O79     1.264   .     A
C67    C175    1.477   .     S
C74    O75     1.282   .     A
C74    C120    1.478   .     S
C80    S85     1.709   .     A
C80    S86     1.708   1_556 A
C81    C82     1.358   .     A
C81    S83     1.686   .     A
C81    S85     1.681   .     A
C82    S84     1.685   .     A
C82    S86     1.687   1_556 A
S83    C87     1.713   .     A
S84    C87     1.715   .     A
S86    C80     1.708   1_554 A
S86    C82     1.687   1_554 A
C88    S93     1.724   .     A
C88    S94     1.718   .     A
C89    C90     1.357   .     A
C89    S91     1.704   .     A
C89    S93     1.698   .     A
C90    S92     1.693   .     A
C90    S94     1.700   .     A
S91    C95     1.720   .     A
S92    C95     1.723   .     A
C95    C34     1.476   1_545 S
C96    S101    1.724   .     A
C96    S102    1.712   .     A
C97    C98     1.359   .     A
C97    S99     1.706   .     A
C97    S101    1.692   .     A
C98    S100    1.683   .     A
C98    S102    1.697   .     A
S99    C103    1.718   .     A
S100   C103    1.729   .     A
C104   S110    1.722   .     A
C104   S109    1.715   1_545 A
C105   S107    1.688   .     A
C105   S109    1.708   .     A
C105   C106    1.358   1_565 A
C106   S108    1.684   .     A
C106   S110    1.662   .     A
C106   C105    1.358   1_545 A
S107   C111    1.727   .     A
S108   C111    1.702   1_545 A
S109   C104    1.715   1_565 A
C111   S108    1.702   1_565 A
C111   C23     1.456   1_556 S
C112   S117    1.707   .     A
C112   S118    1.706   1_545 A
C113   S115    1.687   .     A
C113   S117    1.690   .     A
C113   C114    1.357   1_545 A
C114   S116    1.678   .     A
C114   S118    1.681   .     A
C114   C113    1.357   1_565 A
S115   C119    1.717   1_545 A
S116   C119    1.713   .     A
S118   C112    1.706   1_565 A
C119   S115    1.717   1_565 A
C120   S125    1.714   .     A
C120   S126    1.731   .     A
C121   C122    1.356   .     A
C121   S123    1.682   .     A
C121   S125    1.694   .     A
C122   S124    1.721   .     A
C122   S126    1.708   .     A
S123   C127    1.723   .     A
S124   C127    1.724   .     A
C128   S133    1.732   .     A
C128   S134    1.724   .     A
C128   C14     1.487   1_554 S
C129   C130    1.355   .     A
C129   S131    1.717   .     A
C129   S133    1.716   .     A
C130   S132    1.695   .     A
C130   S134    1.695   .     A
S131   C135    1.730   .     A
S132   C135    1.723   .     A
C136   S141    1.729   .     A
C136   S142    1.718   .     A
C137   C138    1.356   .     A
C137   S141    1.711   .     A
C137   S139    1.717   1_455 A
C138   S140    1.682   .     A
C138   S142    1.691   .     A
S139   C143    1.727   .     A
S139   C137    1.717   1_655 A
S140   C143    1.718   1_455 A
C143   S140    1.718   1_655 A
C144   S149    1.723   .     A
C144   S150    1.711   1_655 A
C144   C43     1.461   1_565 S
C145   S147    1.706   .     A
C145   S149    1.688   .     A
C145   C146    1.357   1_655 A
C146   S148    1.684   .     A
C146   S150    1.704   .     A
C146   C145    1.357   1_455 A
S147   C151    1.716   1_655 A
S148   C151    1.732   .     A
S150   C144    1.711   1_455 A
C151   S147    1.716   1_455 A
C152   S158    1.713   .     A
C152   S157    1.713   1_455 A
C153   C154    1.358   .     A
C153   S155    1.685   .     A
C153   S157    1.688   .     A
C154   S156    1.689   .     A
C154   S158    1.687   1_655 A
S155   C159    1.712   .     A
S156   C159    1.714   .     A
S157   C152    1.713   1_655 A
S158   C154    1.687   1_455 A
C160   S165    1.709   .     A
C160   S166    1.728   .     A
C161   C162    1.357   .     A
C161   S163    1.677   .     A
C161   S165    1.690   1_556 A
C162   S164    1.705   .     A
C162   S166    1.690   1_556 A
S163   C167    1.721   .     A
S164   C167    1.716   .     A
S165   C161    1.690   1_554 A
S166   C162    1.690   1_554 A
C167   C3      1.460   1_655 S
C168   S173    1.719   .     A
C168   S174    1.721   .     A
C169   C170    1.355   .     A
C169   S171    1.699   .     A
C169   S173    1.698   .     A
C170   S172    1.699   .     A
C170   S174    1.697   .     A
S171   C175    1.719   .     A
S172   C175    1.719   .     A
