data_lcy+N205+E183
_audit_creation_date              2025-01-21
_audit_creation_method            'Materials Studio'
_symmetry_space_group_name_H-M    'P1'
_symmetry_Int_Tables_number       1
_symmetry_cell_setting            triclinic
loop_
_symmetry_equiv_pos_as_xyz
  x,y,z
_cell_length_a                    23.9998
_cell_length_b                    21.8411
_cell_length_c                    23.4414
_cell_angle_alpha                 116.1328
_cell_angle_beta                  95.2976
_cell_angle_gamma                 96.3642
loop_
_atom_site_label
_atom_site_type_symbol
_atom_site_fract_x
_atom_site_fract_y
_atom_site_fract_z
_atom_site_U_iso_or_equiv
_atom_site_adp_type
_atom_site_occupancy
Y0     Y     0.19472   0.56611   0.90877   0.00000  Uiso   1.00
Y1     Y     0.08143   0.71793   0.87297   0.00000  Uiso   1.00
C2     C    -0.00561   0.71879   0.93796   0.00000  Uiso   1.00
C3     C     0.07723   0.56145   0.83925   0.00000  Uiso   1.00
C4     C     0.20442   0.51994   0.99739   0.00000  Uiso   1.00
C5     C     0.24623   0.53001   0.80369   0.00000  Uiso   1.00
C6     C     0.19870   0.72340   0.94366   0.00000  Uiso   1.00
C7     C     1.06406   0.78246   0.79924   0.00000  Uiso   1.00
O8     O     0.03970   0.76227   0.96204   0.00000  Uiso   1.00
O9     O     0.99504   0.67399   0.88128   0.00000  Uiso   1.00
O10    O     0.10276   0.53422   0.86999   0.00000  Uiso   1.00
O11    O     0.10433   0.61051   0.83188   0.00000  Uiso   1.00
O12    O     0.22392   0.58085   1.00861   0.00000  Uiso   1.00
O13    O     0.18303   0.48140   0.93912   0.00000  Uiso   1.00
O14    O     0.19339   0.51776   0.80212   0.00000  Uiso   1.00
O15    O     0.27414   0.55884   0.86061   0.00000  Uiso   1.00
O16    O     0.17173   0.76091   0.92637   0.00000  Uiso   1.00
O17    O     0.17007   0.67077   0.94285   0.00000  Uiso   1.00
O18    O     1.05054   0.71785   0.77831   0.00000  Uiso   1.00
O19    O     0.08824   0.81234   0.85691   0.00000  Uiso   1.00
Y20    Y     0.55665   0.82525   0.17082   0.00000  Uiso   1.00
Y21    Y     0.64332   0.89776   0.06239   0.00000  Uiso   1.00
C22    C     0.72423   0.81913   0.05095   0.00000  Uiso   1.00
C23    C     0.66578   0.92851   0.20535   0.00000  Uiso   1.00
C24    C     0.54089   0.73305   0.21787   0.00000  Uiso   1.00
C25    C     0.49926   0.93263   0.20644   0.00000  Uiso   1.00
C26    C     0.52229   0.80985   0.03830   0.00000  Uiso   1.00
C27    C     0.66403   0.96594  -0.00729   0.00000  Uiso   1.00
O28    O     0.67497   0.79485   0.01871   0.00000  Uiso   1.00
O29    O     0.72957   0.88161   0.09116   0.00000  Uiso   1.00
O30    O     0.64990   0.86428   0.18620   0.00000  Uiso   1.00
O31    O     0.65176   0.95721   0.17045   0.00000  Uiso   1.00
O32    O     0.52797   0.71810   0.15928   0.00000  Uiso   1.00
O33    O     0.56081   0.79632   0.25257   0.00000  Uiso   1.00
O34    O     0.55108   0.93736   0.22538   0.00000  Uiso   1.00
O35    O     0.47500   0.87067   0.17158   0.00000  Uiso   1.00
O36    O     0.54868   0.86270   0.03686   0.00000  Uiso   1.00
O37    O     0.54837   0.77862   0.06383   0.00000  Uiso   1.00
O38    O     0.67567   0.99419   0.05303   0.00000  Uiso   1.00
O39    O     0.64068   0.90404   0.96946   0.00000  Uiso   1.00
Y40    Y     0.92164   0.18310   0.53539   0.00000  Uiso   1.00
Y41    Y     0.85509   0.08709   0.68144   0.00000  Uiso   1.00
C42    C     0.93294   0.00543   0.67653   0.00000  Uiso   1.00
C43    C     0.83695   0.06568   0.53720   0.00000  Uiso   1.00
C44    C     1.02932   0.19609   0.51409   0.00000  Uiso   1.00
C45    C     0.83633   0.23377   0.49806   0.00000  Uiso   1.00
C46    C     0.90494   0.22568   0.68311   0.00000  Uiso   1.00
C47    C     0.78714   0.07916   0.76430   0.00000  Uiso   1.00
O48    O     0.94386   0.07061   0.70588   0.00000  Uiso   1.00
O49    O     0.88350   0.98320   0.64538   0.00000  Uiso   1.00
O50    O     0.88944   0.09147   0.55072   0.00000  Uiso   1.00
O51    O     0.81236   0.05677   0.57957   0.00000  Uiso   1.00
O52    O     1.01140   0.24001   0.56174   0.00000  Uiso   1.00
O53    O     0.99097   0.14580   0.47587   0.00000  Uiso   1.00
O54    O     0.85266   0.17901   0.46078   0.00000  Uiso   1.00
O55    O     0.86716   0.26469   0.55223   0.00000  Uiso   1.00
O56    O     0.88337   0.20242   0.71865   0.00000  Uiso   1.00
O57    O     0.91154   0.18109   0.62820   0.00000  Uiso   1.00
O58    O     0.77188   1.05022   0.70431   0.00000  Uiso   1.00
O59    O     0.83613   0.11451   0.78125   0.00000  Uiso   1.00
Y60    Y     0.42848   0.32473   0.44720   0.00000  Uiso   1.00
Y61    Y     0.33357   0.39730   0.33320   0.00000  Uiso   1.00
C62    C     0.42408   0.47523   0.32455   0.00000  Uiso   1.00
C63    C     0.35552   0.43507   0.48404   0.00000  Uiso   1.00
C64    C     0.53434   0.30054   0.46463   0.00000  Uiso   1.00
C65    C     0.33523   0.25789   0.46501   0.00000  Uiso   1.00
C66    C     0.38995   0.27348   0.30691   0.00000  Uiso   1.00
C67    C     0.25027   0.41411   0.25906   0.00000  Uiso   1.00
O68    O     0.40813   0.41194   0.28624   0.00000  Uiso   1.00
O69    O     0.39870   0.49556   0.37253   0.00000  Uiso   1.00
O70    O     0.40780   0.43131   0.48074   0.00000  Uiso   1.00
O71    O     0.31885   0.41545   0.43331   0.00000  Uiso   1.00
O72    O     0.49596   0.25800   0.41976   0.00000  Uiso   1.00
O73    O     0.51705   0.35427   0.50314   0.00000  Uiso   1.00
O74    O     0.34404   0.25250   0.41077   0.00000  Uiso   1.00
O75    O     0.37744   0.29221   0.50928   0.00000  Uiso   1.00
O76    O     0.34260   0.28484   0.28903   0.00000  Uiso   1.00
O77    O     0.42315   0.32368   0.35201   0.00000  Uiso   1.00
O78    O     0.26881   0.45787   0.31664   0.00000  Uiso   1.00
O79    O     0.26917   0.35861   0.24350   0.00000  Uiso   1.00
C80    C     0.46049   0.78986   0.01626   0.00000  Uiso   1.00
C81    C     0.36179   0.78798   0.97665   0.00000  Uiso   1.00
C82    C     0.36014   0.73950  -0.00195   0.00000  Uiso   1.00
S83    S     0.29968   0.80134   0.94711   0.00000  Uiso   1.00
S84    S     0.29608   0.69530  -0.00612   0.00000  Uiso   1.00
S85    S     0.42587   0.83318   0.98189   0.00000  Uiso   1.00
S86    S     0.42202   0.72655   0.02863   0.00000  Uiso   1.00
C87    C     0.26120   0.73866   0.96019   0.00000  Uiso   1.00
C88    C     0.40641   0.20465   0.27985   0.00000  Uiso   1.00
C89    C     0.41148   0.08159   0.24163   0.00000  Uiso   1.00
C90    C     0.46532   0.11495   0.25164   0.00000  Uiso   1.00
S91    S     0.40146  -0.00544   0.21714   0.00000  Uiso   1.00
S92    S     0.51914   0.07003   0.24256   0.00000  Uiso   1.00
S93    S     0.35847   0.12975   0.25611   0.00000  Uiso   1.00
S94    S     0.47687   0.20071   0.27565   0.00000  Uiso   1.00
C95    C     0.47350  -0.00536   0.22110   0.00000  Uiso   1.00
C96    C     0.78234   0.25396   0.48417   0.00000  Uiso   1.00
C97    C     0.68163   0.24407   0.44666   0.00000  Uiso   1.00
C98    C     0.69521   0.30331   0.50287   0.00000  Uiso   1.00
S99    S     0.61324   0.21904   0.40973   0.00000  Uiso   1.00
S100   S     0.64335   0.34909   0.53261   0.00000  Uiso   1.00
S101   S     0.73343   0.19728   0.41833   0.00000  Uiso   1.00
S102   S     0.76280   0.32611   0.54205   0.00000  Uiso   1.00
C103   C     0.59345   0.28974   0.46933   0.00000  Uiso   1.00
C104   C     0.75392   1.06910   0.80994   0.00000  Uiso   1.00
C105   C     0.73092   1.06412   0.90718   0.00000  Uiso   1.00
C106   C     0.69272   1.01438   0.85758   0.00000  Uiso   1.00
S107   S     0.73156   1.06936   0.98157   0.00000  Uiso   1.00
S108   S     0.64800   0.95996   0.87258   0.00000  Uiso   1.00
S109   S     0.78001   0.11323   0.89082   0.00000  Uiso   1.00
S110   S     0.69564   1.00484   0.78217   0.00000  Uiso   1.00
C111   C     0.67844   0.99893   0.95235   0.00000  Uiso   1.00
C112   C     0.80454   1.04923   0.47448   0.00000  Uiso   1.00
C113   C     0.72778   1.01808   0.38530   0.00000  Uiso   1.00
C114   C     0.77618   1.00793   0.35902   0.00000  Uiso   1.00
S115   S     0.66521   0.99648   0.33543   0.00000  Uiso   1.00
S116   S     0.77139   0.97400   0.27808   0.00000  Uiso   1.00
S117   S     0.73236   1.04733   0.46603   0.00000  Uiso   1.00
S118   S     0.83815   1.02430   0.40801   0.00000  Uiso   1.00
C119   C     0.69906   0.96887   0.26930   0.00000  Uiso   1.00
C120   C     0.33611   0.45599   0.54692   0.00000  Uiso   1.00
C121   C     0.33069   0.48827   0.66051   0.00000  Uiso   1.00
C122   C     0.27717   0.48227   0.63150   0.00000  Uiso   1.00
S123   S     0.34117   0.51013   0.74044   0.00000  Uiso   1.00
S124   S     0.22413   0.49595   0.67579   0.00000  Uiso   1.00
S125   S     0.38324   0.47276   0.61449   0.00000  Uiso   1.00
S126   S     0.26562   0.46087   0.55226   0.00000  Uiso   1.00
C127   C     0.27012   0.51332   0.74397   0.00000  Uiso   1.00
C128   C     0.20460   0.49768   0.04779   0.00000  Uiso   1.00
C129   C     0.20177   0.42983   0.10711   0.00000  Uiso   1.00
C130   C     0.20994   0.49729   0.15191   0.00000  Uiso   1.00
S131   S     0.20499   0.36865   0.13251   0.00000  Uiso   1.00
S132   S     0.22181   0.51632   0.23067   0.00000  Uiso   1.00
S133   S     0.19455   0.41128   0.02839   0.00000  Uiso   1.00
S134   S     0.21405   0.55904   0.12684   0.00000  Uiso   1.00
C135   C     0.22044   0.43072   0.21174   0.00000  Uiso   1.00
C136   C     0.27956   0.23434   0.47641   0.00000  Uiso   1.00
C137   C     0.17736   0.19290   0.45959   0.00000  Uiso   1.00
C138   C     0.19204   0.23820   0.52294   0.00000  Uiso   1.00
S139   S     0.10813   0.15663   0.43084   0.00000  Uiso   1.00
S140   S     0.14005   0.25738   0.56925   0.00000  Uiso   1.00
S141   S     0.22871   0.17886   0.41224   0.00000  Uiso   1.00
S142   S     0.26082   0.27601   0.55158   0.00000  Uiso   1.00
C143   C     0.08898   0.20300   0.50495   0.00000  Uiso   1.00
C144   C     0.97042   0.96021   0.68475   0.00000  Uiso   1.00
C145   C     0.99822   0.86050   0.69485   0.00000  Uiso   1.00
C146   C     1.03398   0.91718   0.74069   0.00000  Uiso   1.00
S147   S     0.99980   0.78314   0.69537   0.00000  Uiso   1.00
S148   S     1.07775   0.90752   0.79578   0.00000  Uiso   1.00
S149   S     0.94863   0.87191   0.64583   0.00000  Uiso   1.00
S150   S     1.02750   0.99594   0.74589   0.00000  Uiso   1.00
C151   C     1.05054   0.82061   0.76283   0.00000  Uiso   1.00
C152   C     0.01977   0.52720   0.80609   0.00000  Uiso   1.00
C153   C    -0.03137   0.41490   0.72517   0.00000  Uiso   1.00
C154   C     0.95017   0.42469   0.78096   0.00000  Uiso   1.00
S155   S    -0.04480   0.33438   0.66319   0.00000  Uiso   1.00
S156   S     0.91239   0.35628   0.78414   0.00000  Uiso   1.00
S157   S     0.01376   0.47957   0.72422   0.00000  Uiso   1.00
S158   S     0.97573   0.50021   0.84757   0.00000  Uiso   1.00
C159   C     0.92080   0.30111   0.70693   0.00000  Uiso   1.00
C160   C     0.77306   0.78307   0.03971   0.00000  Uiso   1.00
C161   C     0.84343   0.71956   0.98101   0.00000  Uiso   1.00
C162   C     0.87300   0.77204   0.03661   0.00000  Uiso   1.00
S163   S     0.88027   0.67226   0.92362   0.00000  Uiso   1.00
S164   S     0.94474   0.78843   0.04484   0.00000  Uiso   1.00
S165   S     0.77164   0.71091   0.96836   0.00000  Uiso   1.00
S166   S     0.83641   0.82506   0.09033   0.00000  Uiso   1.00
C167   C     0.94350   0.72341   0.96883   0.00000  Uiso   1.00
C168   C     0.53219   0.68224   0.24274   0.00000  Uiso   1.00
C169   C     0.50430   0.57507   0.24928   0.00000  Uiso   1.00
C170   C     0.50668   0.62715   0.30955   0.00000  Uiso   1.00
S171   S     0.47871   0.49334   0.23454   0.00000  Uiso   1.00
S172   S     0.48023   0.60776   0.36503   0.00000  Uiso   1.00
S173   S     0.52142   0.59528   0.19079   0.00000  Uiso   1.00
S174   S     0.52554   0.70956   0.32198   0.00000  Uiso   1.00
C175   C     0.46356   0.52152   0.31127   0.00000  Uiso   1.00
loop_
_geom_bond_atom_site_label_1
_geom_bond_atom_site_label_2
_geom_bond_distance
_geom_bond_site_symmetry_2
_ccdc_geom_bond_type
Y0     O10     2.216   .     S
Y0     O12     2.248   .     S
Y0     O13     2.256   .     S
Y0     O14     2.240   .     S
Y0     O15     2.289   .     S
Y0     O17     2.234   .     S
Y1     O8      2.263   .     S
Y1     O11     2.264   .     S
Y1     O16     2.271   .     S
Y1     O19     2.245   .     S
Y1     O9      2.248   1_455 S
Y1     O18     2.273   1_455 S
C2     O8      1.260   .     A
C2     O9      1.259   1_455 A
C2     C167    1.467   1_455 S
C3     O10     1.275   .     A
C3     O11     1.277   .     A
C3     C152    1.458   .     S
C4     O12     1.261   .     A
C4     O13     1.265   .     A
C4     C128    1.462   1_556 S
C5     O14     1.260   .     A
C5     O15     1.275   .     A
C5     C127    1.472   .     S
C6     O16     1.271   .     A
C6     O17     1.264   .     A
C6     C87     1.476   .     S
C7     O18     1.264   .     A
C7     C151    1.471   .     S
C7     O19     1.259   1_655 A
O9     Y1      2.248   1_655 S
O9     C2      1.259   1_655 A
O18    Y1      2.273   1_655 S
O19    C7      1.259   1_455 A
Y20    O30     2.241   .     S
Y20    O32     2.253   .     S
Y20    O33     2.264   .     S
Y20    O34     2.235   .     S
Y20    O35     2.291   .     S
Y20    O37     2.232   .     S
Y21    O28     2.274   .     S
Y21    O29     2.231   .     S
Y21    O31     2.257   .     S
Y21    O36     2.250   .     S
Y21    O38     2.272   .     S
Y21    O39     2.238   1_554 S
C22    O28     1.262   .     A
C22    O29     1.254   .     A
C22    C160    1.464   .     S
C23    O30     1.269   .     A
C23    O31     1.274   .     A
C23    C119    1.456   .     S
C24    O32     1.262   .     A
C24    O33     1.261   .     A
C24    C168    1.468   .     S
C25    O34     1.258   .     A
C25    O35     1.265   .     A
C25    C95     1.466   1_565 S
C26    O36     1.269   .     A
C26    O37     1.265   .     A
C26    C80     1.474   .     S
C27    O38     1.256   .     A
C27    O39     1.251   1_554 A
C27    C111    1.463   1_554 S
O39    Y21     2.238   1_556 S
O39    C27     1.251   1_556 A
Y40    O50     2.253   .     S
Y40    O52     2.248   .     S
Y40    O53     2.260   .     S
Y40    O54     2.259   .     S
Y40    O55     2.243   .     S
Y40    O57     2.230   .     S
Y41    O48     2.263   .     S
Y41    O51     2.280   .     S
Y41    O56     2.268   .     S
Y41    O59     2.250   .     S
Y41    O49     2.256   1_545 S
Y41    O58     2.268   1_545 S
C42    O48     1.261   .     A
C42    O49     1.256   1_545 A
C42    C144    1.468   1_545 S
C43    O50     1.272   .     A
C43    O51     1.275   .     A
C43    C112    1.469   1_545 S
C44    O52     1.261   .     A
C44    O53     1.270   .     A
C44    C143    1.468   1_655 S
C45    O54     1.262   .     A
C45    O55     1.255   .     A
C45    C96     1.468   .     S
C46    O56     1.271   .     A
C46    O57     1.264   .     A
C46    C159    1.477   .     S
C47    O59     1.257   .     A
C47    O58     1.258   1_545 A
C47    C104    1.468   1_545 S
O49    Y41     2.256   1_565 S
O49    C42     1.256   1_565 A
O58    Y41     2.268   1_565 S
O58    C47     1.258   1_565 A
Y60    O70     2.236   .     S
Y60    O72     2.247   .     S
Y60    O73     2.256   .     S
Y60    O74     2.261   .     S
Y60    O75     2.274   .     S
Y60    O77     2.213   .     S
Y61    O68     2.250   .     S
Y61    O69     2.268   .     S
Y61    O71     2.270   .     S
Y61    O76     2.252   .     S
Y61    O78     2.261   .     S
Y61    O79     2.252   .     S
C62    O68     1.261   .     A
C62    O69     1.257   .     A
C62    C175    1.462   .     S
C63    O70     1.274   .     A
C63    O71     1.283   .     A
C63    C120    1.476   .     S
C64    O72     1.260   .     A
C64    O73     1.268   .     A
C64    C103    1.466   .     S
C65    O74     1.264   .     A
C65    O75     1.272   .     A
C65    C136    1.468   .     S
C66    O76     1.263   .     A
C66    O77     1.259   .     A
C66    C88     1.468   .     S
C67    O78     1.262   .     A
C67    O79     1.253   .     A
C67    C135    1.463   .     S
C80    S86     1.723   .     A
C80    S85     1.720   1_554 A
C81    S83     1.694   .     A
C81    S85     1.696   .     A
C81    C82     1.355   1_556 A
C82    S84     1.693   .     A
C82    S86     1.695   .     A
C82    C81     1.355   1_554 A
S83    C87     1.721   .     A
S84    C87     1.713   1_554 A
S85    C80     1.720   1_556 A
C87    S84     1.713   1_556 A
C88    S93     1.724   .     A
C88    S94     1.712   .     A
C89    C90     1.357   .     A
C89    S91     1.707   .     A
C89    S93     1.704   .     A
C90    S92     1.680   .     A
C90    S94     1.682   .     A
S91    C95     1.723   .     A
S92    C95     1.713   .     A
C95    C25     1.466   1_545 S
C96    S101    1.718   .     A
C96    S102    1.715   .     A
C97    C98     1.357   .     A
C97    S99     1.692   .     A
C97    S101    1.693   .     A
C98    S100    1.690   .     A
C98    S102    1.693   .     A
S99    C103    1.717   .     A
S100   C103    1.717   .     A
C104   S110    1.715   .     A
C104   S109    1.718   1_565 A
C104   C47     1.468   1_565 S
C105   C106    1.357   .     A
C105   S107    1.695   .     A
C105   S109    1.689   1_565 A
C106   S108    1.686   .     A
C106   S110    1.695   .     A
S107   C111    1.714   .     A
S108   C111    1.721   .     A
S109   C104    1.718   1_545 A
S109   C105    1.689   1_545 A
C111   C27     1.463   1_556 S
C112   S117    1.719   .     A
C112   S118    1.720   .     A
C112   C43     1.469   1_565 S
C113   C114    1.359   .     A
C113   S115    1.696   .     A
C113   S117    1.698   .     A
C114   S116    1.692   .     A
C114   S118    1.692   .     A
S115   C119    1.716   .     A
S116   C119    1.714   .     A
C120   S125    1.729   .     A
C120   S126    1.719   .     A
C121   C122    1.361   .     A
C121   S123    1.703   .     A
C121   S125    1.701   .     A
C122   S124    1.686   .     A
C122   S126    1.690   .     A
S123   C127    1.722   .     A
S124   C127    1.722   .     A
C128   S133    1.717   .     A
C128   S134    1.717   .     A
C128   C4      1.462   1_554 S
C129   C130    1.359   .     A
C129   S131    1.692   .     A
C129   S133    1.693   .     A
C130   S132    1.692   .     A
C130   S134    1.689   .     A
S131   C135    1.723   .     A
S132   C135    1.716   .     A
C136   S141    1.717   .     A
C136   S142    1.721   .     A
C137   C138    1.356   .     A
C137   S139    1.695   .     A
C137   S141    1.697   .     A
C138   S140    1.696   .     A
C138   S142    1.692   .     A
S139   C143    1.719   .     A
S140   C143    1.716   .     A
C143   C44     1.468   1_455 S
C144   S149    1.721   .     A
C144   S150    1.719   .     A
C144   C42     1.468   1_565 S
C145   C146    1.359   .     A
C145   S147    1.700   .     A
C145   S149    1.693   .     A
C146   S148    1.689   .     A
C146   S150    1.696   .     A
S147   C151    1.714   .     A
S148   C151    1.723   .     A
C152   S157    1.716   .     A
C152   S158    1.722   1_455 A
C153   S155    1.687   .     A
C153   S157    1.692   .     A
C153   C154    1.354   1_455 A
C154   S156    1.694   .     A
C154   S158    1.693   .     A
C154   C153    1.354   1_655 A
S155   C159    1.715   1_455 A
S156   C159    1.723   .     A
S158   C152    1.722   1_655 A
C159   S155    1.715   1_655 A
C160   S166    1.720   .     A
C160   S165    1.714   1_554 A
C161   S163    1.690   .     A
C161   S165    1.696   .     A
C161   C162    1.360   1_556 A
C162   S164    1.694   .     A
C162   S166    1.686   .     A
C162   C161    1.360   1_554 A
S163   C167    1.720   .     A
S164   C167    1.716   1_554 A
S165   C160    1.714   1_556 A
C167   S164    1.716   1_556 A
C167   C2      1.467   1_655 S
C168   S173    1.718   .     A
C168   S174    1.712   .     A
C169   C170    1.360   .     A
C169   S171    1.690   .     A
C169   S173    1.685   .     A
C170   S172    1.689   .     A
C170   S174    1.692   .     A
S171   C175    1.715   .     A
S172   C175    1.716   .     A
