data_lcy+N144+E70
_audit_creation_date              2025-01-21
_audit_creation_method            'Materials Studio'
_symmetry_space_group_name_H-M    'P1'
_symmetry_Int_Tables_number       1
_symmetry_cell_setting            triclinic
loop_
_symmetry_equiv_pos_as_xyz
  x,y,z
_cell_length_a                    17.4525
_cell_length_b                    17.2130
_cell_length_c                    17.2896
_cell_angle_alpha                 87.8353
_cell_angle_beta                  86.7768
_cell_angle_gamma                 75.8604
loop_
_atom_site_label
_atom_site_type_symbol
_atom_site_fract_x
_atom_site_fract_y
_atom_site_fract_z
_atom_site_U_iso_or_equiv
_atom_site_adp_type
_atom_site_occupancy
C0     C     0.18838   0.77864   1.00275   0.00000  Uiso   1.00
Er1    Er    0.12142   0.55471   0.84203   0.00000  Uiso   1.00
Er2    Er    0.16607   0.65412   0.88961   0.00000  Uiso   1.00
C3     C    -0.00844   0.66156   0.92956   0.00000  Uiso   1.00
O4     O     0.20457   0.58686   0.99465   0.00000  Uiso   1.00
C5     C     0.08400   0.71306   0.74770   0.00000  Uiso   1.00
C6     C     0.28056   0.56556   0.76977   0.00000  Uiso   1.00
C7     C     0.11302   0.40439   0.84902   0.00000  Uiso   1.00
O8     O     0.13542   0.75834   0.04073   0.00000  Uiso   1.00
O9     O     0.20970   0.75427   0.92766   0.00000  Uiso   1.00
O10    O     0.27917   0.61223   0.82563   0.00000  Uiso   1.00
O11    O     0.22897   0.52473   0.76903   0.00000  Uiso   1.00
O12    O     0.13077   0.73051   0.79245   0.00000  Uiso   1.00
O13    O     0.06976   0.64364   0.75245   0.00000  Uiso   1.00
C14    C     0.19812   0.51550   1.00234   0.00000  Uiso   1.00
O15    O     0.17364   0.48340   0.94538   0.00000  Uiso   1.00
O16    O     0.04477   0.69996   0.93750   0.00000  Uiso   1.00
O17    O     1.01104   0.58985   0.90763   0.00000  Uiso   1.00
O18    O     0.15000   0.43489   0.89659   0.00000  Uiso   1.00
O19    O     1.08100   0.45457   0.79801   0.00000  Uiso   1.00
C20    C     0.77062   0.92021   0.24236   0.00000  Uiso   1.00
Er21   Er    0.56592   0.88270   0.05229   0.00000  Uiso   1.00
Er22   Er    0.65879   0.87079   0.13885   0.00000  Uiso   1.00
C23    C     0.68405   0.97606   1.00199   0.00000  Uiso   1.00
O24    O     0.58655   0.96767   0.20821   0.00000  Uiso   1.00
C25    C     0.71228   0.76413   0.00108   0.00000  Uiso   1.00
C26    C     0.56867   0.74734   0.17519   0.00000  Uiso   1.00
C27    C     0.42727   0.86468   1.02333   0.00000  Uiso   1.00
O28    O     0.73265  -0.01538   0.21862   0.00000  Uiso   1.00
O29    O     0.75909   0.84971   0.21530   0.00000  Uiso   1.00
O30    O     0.61716   0.77970   0.20529   0.00000  Uiso   1.00
O31    O     0.52908   0.78315   0.11849   0.00000  Uiso   1.00
O32    O     0.73014   0.77696   0.06869   0.00000  Uiso   1.00
O33    O     0.64230   0.79337  -0.02153   0.00000  Uiso   1.00
C34    C     0.51768   0.99982   0.18603   0.00000  Uiso   1.00
O35    O     0.49388   0.97488   0.12597   0.00000  Uiso   1.00
O36    O     0.70976   0.95324   0.06820   0.00000  Uiso   1.00
O37    O     0.61643   0.96882   0.98581   0.00000  Uiso   1.00
O38    O     0.47230   0.81930   0.07058   0.00000  Uiso   1.00
O39    O     0.46214   0.90943   0.98256   0.00000  Uiso   1.00
C40    C     0.99307   0.17693   0.81978   0.00000  Uiso   1.00
Er41   Er    0.84541   0.10869   0.59138   0.00000  Uiso   1.00
Er42   Er    0.88316   0.16024   0.68982   0.00000  Uiso   1.00
C43    C     0.97890   0.99085   0.65002   0.00000  Uiso   1.00
O44    O     0.96615   0.20167   0.61216   0.00000  Uiso   1.00
C45    C     0.79053   0.05309   0.75080   0.00000  Uiso   1.00
C46    C     0.72862   0.25938   0.63800   0.00000  Uiso   1.00
C47    C     0.85637   0.01057   0.47611   0.00000  Uiso   1.00
O48    O     0.00158   0.10546   0.83241   0.00000  Uiso   1.00
O49    O     0.92587   0.22078   0.78436   0.00000  Uiso   1.00
O50    O     0.78663   0.26934   0.67528   0.00000  Uiso   1.00
O51    O     0.73681   0.19645   0.60086   0.00000  Uiso   1.00
O52    O     0.80133   0.12050   0.76602   0.00000  Uiso   1.00
O53    O     0.80174   0.02952   0.68031   0.00000  Uiso   1.00
C54    C     0.95524   0.20980   0.54031   0.00000  Uiso   1.00
O55    O     0.89842   0.18633   0.51327   0.00000  Uiso   1.00
O56    O     0.96698   0.03956   0.70615   0.00000  Uiso   1.00
O57    O     0.95432   1.01816   0.58459   0.00000  Uiso   1.00
O58    O     0.79503   0.06262   0.49519   0.00000  Uiso   1.00
O59    O     0.91236   1.00967   0.51930   0.00000  Uiso   1.00
C60    C     0.20462   0.28464   0.48226   0.00000  Uiso   1.00
Er61   Er    0.42596   0.41680   0.36958   0.00000  Uiso   1.00
Er62   Er    0.32730   0.38360   0.43730   0.00000  Uiso   1.00
C63    C     0.47344   0.34694   0.52767   0.00000  Uiso   1.00
O64    O     0.29126   0.50021   0.48554   0.00000  Uiso   1.00
C65    C     0.41206   0.25226   0.32979   0.00000  Uiso   1.00
C66    C     0.28264   0.45023   0.27487   0.00000  Uiso   1.00
C67    C     0.49746   0.49735   0.26900   0.00000  Uiso   1.00
O68    O     0.25781   0.22403   0.48525   0.00000  Uiso   1.00
O69    O     0.21890   0.35868   0.49686   0.00000  Uiso   1.00
O70    O     0.25825   0.41685   0.33498   0.00000  Uiso   1.00
O71    O     0.34721   0.47251   0.27678   0.00000  Uiso   1.00
O72    O     0.36677   0.26536   0.39032   0.00000  Uiso   1.00
O73    O     0.44678   0.30596   0.30372   0.00000  Uiso   1.00
C74    C     0.34679   0.53418   0.49356   0.00000  Uiso   1.00
O75    O     0.40545   0.52140   0.44413   0.00000  Uiso   1.00
O76    O     0.39967   0.35166   0.53871   0.00000  Uiso   1.00
O77    O     0.50106   0.35654   0.45969   0.00000  Uiso   1.00
O78    O     0.42393   0.50205   0.26955   0.00000  Uiso   1.00
O79    O     0.53145   0.44552   0.31674   0.00000  Uiso   1.00
N80    N     0.31171   0.80874   1.02561   0.00000  Uiso   1.00
H81    H     0.30067   1.00162   0.03084   0.00000  Uiso   1.00
C82    C     0.34234   0.87236   1.02548   0.00000  Uiso   1.00
C83    C     0.28646   0.94401   0.03042   0.00000  Uiso   1.00
C84    C     0.23235   0.83136   1.03212   0.00000  Uiso   1.00
S85    S     0.19209   0.93228   0.03642   0.00000  Uiso   1.00
N86    N     0.48111   0.12822   0.25796   0.00000  Uiso   1.00
H87    H     0.29026   0.18154   0.30561   0.00000  Uiso   1.00
C88    C     0.41551   0.17749   0.28926   0.00000  Uiso   1.00
C89    C     0.34828   0.14942   0.28474   0.00000  Uiso   1.00
C90    C     0.46193   0.06319   0.22939   0.00000  Uiso   1.00
S91    S     0.36445   0.06053   0.23992   0.00000  Uiso   1.00
N92    N     0.60670   0.31175   0.57510   0.00000  Uiso   1.00
H93    H     0.62358   0.33981   0.75989   0.00000  Uiso   1.00
C94    C     0.64914   0.31295   0.63735   0.00000  Uiso   1.00
C95    C     0.60157   0.34001   0.70251   0.00000  Uiso   1.00
C96    C     0.52842   0.33657   0.59086   0.00000  Uiso   1.00
S97    S     0.50222   0.36542   0.68478   0.00000  Uiso   1.00
N98    N     0.72037   1.01129   0.86650   0.00000  Uiso   1.00
H99    H     0.91392  -0.02721   0.83415   0.00000  Uiso   1.00
C100   C     0.78616   0.00088   0.81936   0.00000  Uiso   1.00
C101   C     0.85504  -0.02387   0.85988   0.00000  Uiso   1.00
C102   C     0.73987   0.99298   0.94084   0.00000  Uiso   1.00
S103   S     0.83934  -0.03408   0.95659   0.00000  Uiso   1.00
N104   N     0.80895   0.97506   0.35666   0.00000  Uiso   1.00
H105   H     0.96246   0.86069   0.44229   0.00000  Uiso   1.00
C106   C     0.86119   0.95711   0.41200   0.00000  Uiso   1.00
C107   C     0.91645   0.88530   0.40246   0.00000  Uiso   1.00
C108   C     0.82343   0.91683   0.30491   0.00000  Uiso   1.00
S109   S     0.90097   0.83602   0.32301   0.00000  Uiso   1.00
N110   N     0.30696   0.55006   0.63069   0.00000  Uiso   1.00
H111   H     0.45639   0.61611   0.55225   0.00000  Uiso   1.00
C112   C     0.35137   0.56825   0.56986   0.00000  Uiso   1.00
C113   C     0.41143   0.60122   0.59209   0.00000  Uiso   1.00
C114   C     0.33092   0.56863   0.69869   0.00000  Uiso   1.00
S115   S     0.40984   0.61253   0.69061   0.00000  Uiso   1.00
N116   N     0.24977   0.49433   0.13663   0.00000  Uiso   1.00
H117   H     0.13804   0.38849   1.06208   0.00000  Uiso   1.00
C118   C     0.21134   0.47224   0.07832   0.00000  Uiso   1.00
C119   C     0.17398   0.41214   0.09975   0.00000  Uiso   1.00
C120   C     0.24025   0.45110   0.20238   0.00000  Uiso   1.00
S121   S     0.18426   0.38221   0.19413   0.00000  Uiso   1.00
N122   N     0.08331   0.24107   0.51738   0.00000  Uiso   1.00
H123   H     0.10583   0.34506   0.35825   0.00000  Uiso   1.00
C124   C     0.12393   0.27923   0.46803   0.00000  Uiso   1.00
C125   C     0.08262   0.31155   0.40409   0.00000  Uiso   1.00
C126   C     0.01114   0.24372   0.49184   0.00000  Uiso   1.00
S127   S    -0.00951   0.29279   0.40474   0.00000  Uiso   1.00
N128   N     1.04757   0.85398   0.70299   0.00000  Uiso   1.00
H129   H     0.89313   0.89034   0.59302   0.00000  Uiso   1.00
C130   C     0.99357   0.90221   0.65920   0.00000  Uiso   1.00
C131   C     0.94457   0.86172   0.62503   0.00000  Uiso   1.00
C132   C     0.04140   0.77702   0.69738   0.00000  Uiso   1.00
S133   S     0.96753   0.76185   0.64286   0.00000  Uiso   1.00
N134   N     1.04531   0.29686   0.82769   0.00000  Uiso   1.00
H135   H     0.21250   0.26769   0.91740   0.00000  Uiso   1.00
C136   C     0.10624   0.32066   0.85516   0.00000  Uiso   1.00
C137   C     0.15904   0.26010   0.89285   0.00000  Uiso   1.00
C138   C     1.05095   0.21873   0.84546   0.00000  Uiso   1.00
S139   S     0.13356   0.17045   0.89375   0.00000  Uiso   1.00
N140   N     0.84928   0.69207  -0.02699   0.00000  Uiso   1.00
H141   H     0.73574   0.81247   0.85003   0.00000  Uiso   1.00
C142   C     0.77863   0.73198  -0.05310   0.00000  Uiso   1.00
C143   C     0.78490   0.77159   0.87685   0.00000  Uiso   1.00
C144   C     0.90847   0.70463   0.92418   0.00000  Uiso   1.00
S145   S     0.88023   0.76322   0.84353   0.00000  Uiso   1.00
N146   N     0.51350   0.62907   0.21609   0.00000  Uiso   1.00
H147   H     0.69943   0.62306   0.16332   0.00000  Uiso   1.00
C148   C     0.57372   0.66197   0.19262   0.00000  Uiso   1.00
C149   C     0.64512   0.60719   0.18303   0.00000  Uiso   1.00
C150   C     0.54098   0.54851   0.22487   0.00000  Uiso   1.00
S151   S     0.63984   0.51165   0.20445   0.00000  Uiso   1.00
loop_
_geom_bond_atom_site_label_1
_geom_bond_atom_site_label_2
_geom_bond_distance
_geom_bond_site_symmetry_2
_ccdc_geom_bond_type
C0     O9      1.382   .     S
C0     C84     1.445   .     S
C0     O8      1.217   1_556 D
Er1    O11     2.166   .     S
Er1    O13     2.204   .     S
Er1    O15     2.236   .     S
Er1    O18     2.190   .     S
Er1    O17     2.145   1_455 S
Er1    O19     2.191   1_455 S
Er2    O4      2.165   .     S
Er2    O9      2.183   .     S
Er2    O10     2.182   .     S
Er2    O12     2.118   .     S
Er2    O16     2.197   .     S
C3     O16     1.280   .     A
C3     O17     1.265   1_455 A
C3     C144    1.465   1_455 S
O4     C14     1.262   .     A
C5     O12     1.250   .     A
C5     O13     1.277   .     A
C5     C132    1.457   .     S
C6     O10     1.275   .     A
C6     O11     1.271   .     A
C6     C114    1.477   .     S
C7     O18     1.275   .     A
C7     C136    1.474   .     S
C7     O19     1.264   1_455 A
O8     C0      1.217   1_554 D
C14    O15     1.289   .     A
C14    C118    1.486   1_556 S
O17    Er1     2.145   1_655 S
O17    C3      1.265   1_655 A
O19    Er1     2.191   1_655 S
O19    C7      1.264   1_655 A
C20    O29     1.380   .     S
C20    C108    1.450   .     S
C20    O28     1.214   1_565 D
Er21   O31     2.229   .     S
Er21   O33     2.174   .     S
Er21   O35     2.172   .     S
Er21   O38     2.179   .     S
Er21   O37     2.166   1_554 S
Er21   O39     2.178   1_554 S
Er22   O24     2.182   .     S
Er22   O29     2.204   .     S
Er22   O30     2.152   .     S
Er22   O32     2.151   .     S
Er22   O36     2.159   .     S
C23    O37     1.264   .     A
C23    C102    1.467   .     S
C23    O36     1.266   1_556 A
O24    C34     1.268   .     A
C25    O32     1.267   .     A
C25    O33     1.279   .     A
C25    C142    1.459   .     S
C26    O30     1.264   .     A
C26    O31     1.281   .     A
C26    C148    1.471   .     S
C27    O39     1.265   .     A
C27    C82     1.454   .     S
C27    O38     1.272   1_556 A
O28    C20     1.214   1_545 D
C34    O35     1.267   .     A
C34    C90     1.470   1_565 S
O36    C23     1.266   1_554 A
O37    Er21    2.166   1_556 S
O38    C27     1.272   1_554 A
O39    Er21    2.178   1_556 S
C40    O49     1.391   .     S
C40    C138    1.471   .     S
C40    O48     1.215   1_655 D
Er41   O51     2.118   .     S
Er41   O53     2.240   .     S
Er41   O55     2.189   .     S
Er41   O58     2.185   .     S
Er41   O57     2.144   1_545 S
Er41   O59     2.202   1_545 S
Er42   O44     2.150   .     S
Er42   O49     2.227   .     S
Er42   O50     2.212   .     S
Er42   O52     2.107   .     S
Er42   O56     2.248   .     S
C43    O57     1.265   .     A
C43    C130    1.488   .     S
C43    O56     1.281   1_565 A
O44    C54     1.265   .     A
C45    O52     1.260   .     A
C45    O53     1.288   .     A
C45    C100    1.470   .     S
C46    O50     1.279   .     A
C46    O51     1.254   .     A
C46    C94     1.466   .     S
C47    O58     1.254   .     A
C47    O59     1.259   1_545 A
C47    C106    1.453   1_545 S
O48    C40     1.215   1_455 D
C54    O55     1.276   .     A
C54    C126    1.464   1_655 S
O56    C43     1.281   1_545 A
O57    Er41    2.144   1_565 S
O59    Er41    2.202   1_565 S
O59    C47     1.259   1_565 A
C60    O68     1.217   .     D
C60    O69     1.392   .     S
C60    C124    1.469   .     S
Er61   O71     2.207   .     S
Er61   O73     2.202   .     S
Er61   O75     2.200   .     S
Er61   O77     2.160   .     S
Er61   O78     2.222   .     S
Er61   O79     2.166   .     S
Er62   O64     2.138   .     S
Er62   O69     2.229   .     S
Er62   O70     2.176   .     S
Er62   O72     2.157   .     S
Er62   O76     2.193   .     S
C63    O76     1.274   .     A
C63    O77     1.266   .     A
C63    C96     1.472   .     S
O64    C74     1.264   .     A
C65    O72     1.268   .     A
C65    O73     1.279   .     A
C65    C88     1.475   .     S
C66    O70     1.271   .     A
C66    O71     1.278   .     A
C66    C120    1.489   .     S
C67    O78     1.266   .     A
C67    O79     1.253   .     A
C67    C150    1.465   .     S
C74    O75     1.278   .     A
C74    C112    1.478   .     S
N80    C82     1.331   .     A
N80    C84     1.343   .     A
H81    C83     1.080   .     S
C82    C83     1.375   1_556 A
C83    S85     1.705   .     A
C83    C82     1.375   1_554 A
C84    S85     1.710   1_556 A
S85    C84     1.710   1_554 A
N86    C88     1.347   .     A
N86    C90     1.361   .     A
H87    C89     1.078   .     S
C88    C89     1.381   .     A
C89    S91     1.696   .     A
C90    S91     1.712   .     A
C90    C34     1.470   1_545 S
N92    C94     1.344   .     A
N92    C96     1.344   .     A
H93    C95     1.083   .     S
C94    C95     1.386   .     A
C95    S97     1.724   .     A
C96    S97     1.720   .     A
N98    C102    1.354   .     A
N98    C100    1.349   1_565 A
H99    C101    1.086   .     S
C100   C101    1.393   .     A
C100   N98     1.349   1_545 A
C101   S103    1.689   .     A
C102   S103    1.719   1_565 A
S103   C102    1.719   1_545 A
N104   C106    1.334   .     A
N104   C108    1.337   .     A
H105   C107    1.083   .     S
C106   C107    1.379   .     A
C106   C47     1.453   1_565 S
C107   S109    1.709   .     A
C108   S109    1.720   .     A
N110   C112    1.344   .     A
N110   C114    1.345   .     A
H111   C113    1.086   .     S
C112   C113    1.386   .     A
C113   S115    1.720   .     A
C114   S115    1.722   .     A
N116   C118    1.357   .     A
N116   C120    1.360   .     A
H117   C119    1.084   1_556 S
C118   C119    1.381   .     A
C118   C14     1.486   1_554 S
C119   S121    1.698   .     A
C119   H117    1.084   1_554 S
C120   S121    1.725   .     A
N122   C124    1.334   .     A
N122   C126    1.348   .     A
H123   C125    1.081   .     S
C124   C125    1.378   .     A
C125   S127    1.715   .     A
C126   S127    1.711   .     A
C126   C54     1.464   1_455 S
N128   C130    1.342   .     A
N128   C132    1.362   1_655 A
H129   C131    1.084   .     S
C130   C131    1.395   .     A
C131   S133    1.688   .     A
C132   N128    1.362   1_455 A
C132   S133    1.714   1_455 A
S133   C132    1.714   1_655 A
N134   C138    1.349   .     A
N134   C136    1.345   1_655 A
H135   C137    1.084   .     S
C136   C137    1.381   .     A
C136   N134    1.345   1_455 A
C137   S139    1.706   .     A
C138   S139    1.722   1_655 A
S139   C138    1.722   1_455 A
N140   C142    1.350   .     A
N140   C144    1.350   1_554 A
H141   C143    1.082   .     S
C142   C143    1.380   1_554 A
C143   S145    1.704   .     A
C143   C142    1.380   1_556 A
C144   S145    1.712   .     A
C144   N140    1.350   1_556 A
C144   C3      1.465   1_655 S
N146   C148    1.347   .     A
N146   C150    1.358   .     A
H147   C149    1.083   .     S
C148   C149    1.373   .     A
C149   S151    1.695   .     A
C150   S151    1.708   .     A
