data_lcy+N505+E35
_audit_creation_date              2025-01-21
_audit_creation_method            'Materials Studio'
_symmetry_space_group_name_H-M    'P1'
_symmetry_Int_Tables_number       1
_symmetry_cell_setting            triclinic
loop_
_symmetry_equiv_pos_as_xyz
  x,y,z
_cell_length_a                    26.9659
_cell_length_b                    26.2842
_cell_length_c                    24.8099
_cell_angle_alpha                 93.0140
_cell_angle_beta                  94.1080
_cell_angle_gamma                 101.4088
loop_
_atom_site_label
_atom_site_type_symbol
_atom_site_fract_x
_atom_site_fract_y
_atom_site_fract_z
_atom_site_U_iso_or_equiv
_atom_site_adp_type
_atom_site_occupancy
Yb0    Yb    0.15673   0.60066   0.80128   0.00000  Uiso   1.00
Yb1    Yb    0.09583   0.66697   0.93145   0.00000  Uiso   1.00
C2     C     0.01710   0.68754   0.96298   0.00000  Uiso   1.00
O3     O     0.08567   0.55610   0.81374   0.00000  Uiso   1.00
O4     O     0.10709   0.57260   0.73182   0.00000  Uiso   1.00
O5     O     0.13460   0.67586   0.80304   0.00000  Uiso   1.00
O6     O     0.06629   0.66788   0.84924   0.00000  Uiso   1.00
O7     O     0.19187   0.53861   0.78179   0.00000  Uiso   1.00
O8     O     0.22373   0.61864   0.76254   0.00000  Uiso   1.00
O9     O     0.16970   0.71002   0.92895   0.00000  Uiso   1.00
O10    O     0.14335   0.68020   1.00512   0.00000  Uiso   1.00
C11    C     0.07743   0.54469   0.76237   0.00000  Uiso   1.00
O12    O     0.19511   0.60882   0.88184   0.00000  Uiso   1.00
O13    O     0.11971   0.59614   0.91132   0.00000  Uiso   1.00
O14    O     0.05556   0.72392   0.95560   0.00000  Uiso   1.00
C15    C     0.09624   0.69285   0.81801   0.00000  Uiso   1.00
O16    O     0.02297   0.64016   0.95573   0.00000  Uiso   1.00
C17    C     0.22377   0.56962   0.75611   0.00000  Uiso   1.00
C18    C     0.18031   0.70414   0.97945   0.00000  Uiso   1.00
C19    C     0.16641   0.59585   0.91945   0.00000  Uiso   1.00
Yb20   Yb    0.65736   0.85758   0.09131   0.00000  Uiso   1.00
Yb21   Yb    0.55183   0.91535   0.18617   0.00000  Uiso   1.00
C22    C     0.51527   0.98905   0.21851   0.00000  Uiso   1.00
O23    O     0.64364   0.92144   0.04831   0.00000  Uiso   1.00
O24    O     0.72079   0.91150   0.07236   0.00000  Uiso   1.00
O25    O     0.66644   0.89634   0.17297   0.00000  Uiso   1.00
O26    O     0.62534   0.96202   0.18177   0.00000  Uiso   1.00
O27    O     0.67012   0.81110   0.02396   0.00000  Uiso   1.00
O28    O     0.69536   0.79663   0.10670   0.00000  Uiso   1.00
O29    O     0.57479   0.85361   0.22363   0.00000  Uiso   1.00
O30    O     0.49395   0.85232   0.20391   0.00000  Uiso   1.00
C31    C     0.69172   0.93520   0.04391   0.00000  Uiso   1.00
O32    O     0.58205   0.80897   0.09375   0.00000  Uiso   1.00
O33    O     0.55946   0.88223   0.10806   0.00000  Uiso   1.00
O34    O     0.53614   0.96178   0.25204   0.00000  Uiso   1.00
C35    C     0.66017   0.93847   0.19772   0.00000  Uiso   1.00
O36    O     0.51403  -0.02474   0.16763   0.00000  Uiso   1.00
C37    C     0.69657   0.78709   0.05537   0.00000  Uiso   1.00
C38    C     0.52871   0.82855   0.22236   0.00000  Uiso   1.00
C39    C     0.54653   0.83377   0.09779   0.00000  Uiso   1.00
Yb40   Yb    0.92631   0.05371   0.66131   0.00000  Uiso   1.00
Yb41   Yb    0.86692   0.16211   0.58461   0.00000  Uiso   1.00
C42    C     0.78913   0.18799   0.55098   0.00000  Uiso   1.00
O43    O     0.86560   0.07167   0.70198   0.00000  Uiso   1.00
O44    O     0.87282   0.99088   0.68633   0.00000  Uiso   1.00
O45    O     0.88614   0.04375   0.58027   0.00000  Uiso   1.00
O46    O     0.82477   0.08614   0.59213   0.00000  Uiso   1.00
O47    O     0.97409   0.04136   0.72846   0.00000  Uiso   1.00
O48    O     0.98530   0.01500   0.64571   0.00000  Uiso   1.00
O49    O     0.93065   0.14635   0.54862   0.00000  Uiso   1.00
O50    O     0.92243   0.22688   0.56609   0.00000  Uiso   1.00
C51    C     0.85030   0.02355   0.71036   0.00000  Uiso   1.00
O52    O     0.97250   0.13205   0.65767   0.00000  Uiso   1.00
O53    O     0.90179   0.15951   0.66356   0.00000  Uiso   1.00
O54    O     0.81872   0.17255   0.51755   0.00000  Uiso   1.00
C55    C     0.84277   0.05317   0.56498   0.00000  Uiso   1.00
O56    O     0.80386   0.19207   0.60195   0.00000  Uiso   1.00
C57    C     0.99685   0.01450   0.69695   0.00000  Uiso   1.00
C58    C     0.94977   0.19525   0.54831   0.00000  Uiso   1.00
C59    C     0.94953   0.16862   0.66982   0.00000  Uiso   1.00
Yb60   Yb    0.34786   0.41079   0.30276   0.00000  Uiso   1.00
Yb61   Yb    0.39582   0.34253   0.42988   0.00000  Uiso   1.00
C62    C     0.46621   0.30375   0.46366   0.00000  Uiso   1.00
O63    O     0.42259   0.44947   0.32790   0.00000  Uiso   1.00
O64    O     0.39654   0.43225   0.24191   0.00000  Uiso   1.00
O65    O     0.36325   0.33229   0.29634   0.00000  Uiso   1.00
O66    O     0.42930   0.35091   0.35533   0.00000  Uiso   1.00
O67    O     0.32213   0.47960   0.29022   0.00000  Uiso   1.00
O68    O     0.27986   0.40471   0.25282   0.00000  Uiso   1.00
O69    O     0.31876   0.31130   0.40669   0.00000  Uiso   1.00
O70    O     0.34700   0.32572   0.49249   0.00000  Uiso   1.00
C71    C     0.42974   0.45842   0.27817   0.00000  Uiso   1.00
O72    O     0.31127   0.40774   0.37815   0.00000  Uiso   1.00
O73    O     0.38403   0.42023   0.42817   0.00000  Uiso   1.00
O74    O     0.42410   0.27497   0.44232   0.00000  Uiso   1.00
C75    C     0.40378   0.32098   0.31749   0.00000  Uiso   1.00
O76    O     0.46819   0.35326   0.46953   0.00000  Uiso   1.00
C77    C     0.28646   0.45485   0.25589   0.00000  Uiso   1.00
C78    C     0.30886   0.31035   0.45676   0.00000  Uiso   1.00
C79    C     0.33900   0.42710   0.42105   0.00000  Uiso   1.00
C80    C     0.38836   0.76611   0.06572   0.00000  Uiso   1.00
C81    C     0.40389   0.81931   0.07949   0.00000  Uiso   1.00
C82    C     0.45529   0.84060   0.09083   0.00000  Uiso   1.00
C83    C     0.49167   0.80896   0.08964   0.00000  Uiso   1.00
C84    C     0.47436   0.75537   0.07652   0.00000  Uiso   1.00
N85    N     0.42374   0.73554   0.06429   0.00000  Uiso   1.00
C86    C     0.33517   0.74578   1.04511   0.00000  Uiso   1.00
N87    N     0.32148   0.75064   0.99216   0.00000  Uiso   1.00
C88    C     0.27239   0.73827   0.97114   0.00000  Uiso   1.00
C89    C     0.23323   0.72040   1.00418   0.00000  Uiso   1.00
C90    C     0.24650   0.71489   1.05908   0.00000  Uiso   1.00
C91    C     0.29758   0.72788   0.07979   0.00000  Uiso   1.00
H92    H     0.46660   0.88223   0.09973   0.00000  Uiso   1.00
H93    H     0.50106   0.72967   0.07449   0.00000  Uiso   1.00
H94    H     0.26413   0.74224   0.92841   0.00000  Uiso   1.00
H95    H     0.21758   0.70052   1.08575   0.00000  Uiso   1.00
H96    H     0.37655   0.84447   0.07946   0.00000  Uiso   1.00
H97    H     0.30758   0.72475   0.12237   0.00000  Uiso   1.00
C98    C     0.44748   0.17592   0.28080   0.00000  Uiso   1.00
C99    C     0.47851   0.21366   0.31703   0.00000  Uiso   1.00
C100   C     0.46462   0.26119   0.32748   0.00000  Uiso   1.00
C101   C     0.41929   0.27129   0.30299   0.00000  Uiso   1.00
C102   C     0.38966   0.23292   0.26613   0.00000  Uiso   1.00
N103   N     0.40447   0.18691   0.25582   0.00000  Uiso   1.00
C104   C     0.46221   0.12570   0.26739   0.00000  Uiso   1.00
N105   N     0.45070   0.10297   0.21629   0.00000  Uiso   1.00
C106   C     0.46608   0.05866   0.20036   0.00000  Uiso   1.00
C107   C     0.49487   0.03464   0.23684   0.00000  Uiso   1.00
C108   C     0.50560   0.05632   0.29023   0.00000  Uiso   1.00
C109   C     0.48940   0.10183   0.30566   0.00000  Uiso   1.00
H110   H     0.48953   0.29006   0.35496   0.00000  Uiso   1.00
H111   H     0.35479   0.23933   0.24579   0.00000  Uiso   1.00
H112   H     0.45652   0.04279   0.15894   0.00000  Uiso   1.00
H113   H     0.52746   0.03884   0.31966   0.00000  Uiso   1.00
H114   H     0.51385   0.20719   0.33624   0.00000  Uiso   1.00
H115   H     0.49827   0.11815   0.34701   0.00000  Uiso   1.00
C116   C     0.64599   0.22319   0.50548   0.00000  Uiso   1.00
C117   C     0.65030   0.18933   0.54648   0.00000  Uiso   1.00
C118   C     0.69732   0.17743   0.56064   0.00000  Uiso   1.00
C119   C     0.73943   0.19810   0.53304   0.00000  Uiso   1.00
C120   C     0.73327   0.22996   0.49070   0.00000  Uiso   1.00
N121   N     0.68739   0.24259   0.47883   0.00000  Uiso   1.00
C122   C     0.59880   0.24195   0.49448   0.00000  Uiso   1.00
N123   N     0.60171   0.29343   0.48802   0.00000  Uiso   1.00
C124   C     0.55967   0.31399   0.47994   0.00000  Uiso   1.00
C125   C     0.51126   0.28187   0.47709   0.00000  Uiso   1.00
C126   C     0.50730   0.22852   0.48288   0.00000  Uiso   1.00
C127   C     0.55110   0.20843   0.49223   0.00000  Uiso   1.00
H128   H     0.70102   0.15246   0.59344   0.00000  Uiso   1.00
H129   H     0.76527   0.24656   0.46882   0.00000  Uiso   1.00
H130   H     0.56421   0.35520   0.47461   0.00000  Uiso   1.00
H131   H     0.47052   0.20251   0.48015   0.00000  Uiso   1.00
H132   H     0.61826   0.17414   0.56896   0.00000  Uiso   1.00
H133   H     0.54783   0.16719   0.49683   0.00000  Uiso   1.00
C134   C     0.76918  -0.00248   0.84890   0.00000  Uiso   1.00
C135   C     0.79591  -0.03973   0.83042   0.00000  Uiso   1.00
C136   C     0.81806  -0.03431   0.78148   0.00000  Uiso   1.00
C137   C     0.81431   0.00867   0.75149   0.00000  Uiso   1.00
C138   C     0.78457   0.04338   0.76979   0.00000  Uiso   1.00
N139   N     0.76309   0.03719   0.81766   0.00000  Uiso   1.00
C140   C     0.75050   0.99512   0.90319   0.00000  Uiso   1.00
N141   N     0.69995   0.98910   0.90906   0.00000  Uiso   1.00
C142   C     0.68042   0.97726   0.95710   0.00000  Uiso   1.00
C143   C     0.71243   0.96887   0.00164   0.00000  Uiso   1.00
C144   C     0.76500   0.98001  -0.00245   0.00000  Uiso   1.00
C145   C     0.78415  -0.00711   0.94830   0.00000  Uiso   1.00
H146   H     0.84129  -0.06150   0.76946   0.00000  Uiso   1.00
H147   H     0.78092   0.07710   0.74771   0.00000  Uiso   1.00
H148   H     0.63964   0.96930   0.95873   0.00000  Uiso   1.00
H149   H     0.79107   0.97438   0.03095   0.00000  Uiso   1.00
H150   H     0.80113  -0.07171   0.85459   0.00000  Uiso   1.00
H151   H     0.82459  -0.00191   0.94455   0.00000  Uiso   1.00
C152   C     0.76919  -0.00129   0.40772   0.00000  Uiso   1.00
C153   C     0.81614  -0.01400   0.42377   0.00000  Uiso   1.00
C154   C     0.83962   0.00259   0.47550   0.00000  Uiso   1.00
C155   C     0.81684   0.03212   0.51134   0.00000  Uiso   1.00
C156   C     0.76983   0.04381   0.49385   0.00000  Uiso   1.00
N157   N     0.74773   0.02729   0.44330   0.00000  Uiso   1.00
C158   C     0.74272   0.98297   0.35295   0.00000  Uiso   1.00
N159   N     0.70737   1.00948   0.33344   0.00000  Uiso   1.00
C160   C     0.68122   0.99695   0.28389   0.00000  Uiso   1.00
C161   C     0.68983   0.95514   0.25069   0.00000  Uiso   1.00
C162   C     0.72593   0.92719   0.27023   0.00000  Uiso   1.00
C163   C     0.75214   0.94073   0.32108   0.00000  Uiso   1.00
H164   H     0.87609  -0.00681   0.48699   0.00000  Uiso   1.00
H165   H     0.75084   0.06661   0.52004   0.00000  Uiso   1.00
H166   H     0.65340   1.01927   0.27084   0.00000  Uiso   1.00
H167   H     0.73347   0.89416   0.24659   0.00000  Uiso   1.00
H168   H     0.83549  -0.03530   0.39654   0.00000  Uiso   1.00
H169   H     0.77845  -0.08269   0.33539   0.00000  Uiso   1.00
C170   C     0.29624   0.49777   0.56281   0.00000  Uiso   1.00
C171   C     0.34308   0.51772   0.54314   0.00000  Uiso   1.00
C172   C     0.35512   0.49660   0.49450   0.00000  Uiso   1.00
C173   C     0.32064   0.45599   0.46505   0.00000  Uiso   1.00
C174   C     0.27318   0.43873   0.48449   0.00000  Uiso   1.00
N175   N     0.26258   0.45923   0.53287   0.00000  Uiso   1.00
C176   C     0.28375   0.51615   0.61637   0.00000  Uiso   1.00
N177   N     0.25284   0.48265   0.64537   0.00000  Uiso   1.00
C178   C     0.23774   0.49768   0.69372   0.00000  Uiso   1.00
C179   C     0.25254   0.54961   0.71453   0.00000  Uiso   1.00
C180   C     0.28606   0.58426   0.68642   0.00000  Uiso   1.00
C181   C     0.30180   0.56769   0.63739   0.00000  Uiso   1.00
H182   H     0.39241   0.51053   0.48091   0.00000  Uiso   1.00
H183   H     0.24593   0.40712   0.46306   0.00000  Uiso   1.00
H184   H     0.21131   0.46992   0.71379   0.00000  Uiso   1.00
H185   H     0.29760   0.62485   0.70062   0.00000  Uiso   1.00
H186   H     0.37123   0.54745   0.56622   0.00000  Uiso   1.00
H187   H     0.32555   0.59575   0.61497   0.00000  Uiso   1.00
C188   C     0.21482   0.54918   0.07321   0.00000  Uiso   1.00
C189   C     0.25107   0.57895   0.04326   0.00000  Uiso   1.00
C190   C     0.23608   0.59381   0.99225   0.00000  Uiso   1.00
C191   C     0.18501   0.58025   0.97218   0.00000  Uiso   1.00
C192   C     0.15014   0.55075   1.00367   0.00000  Uiso   1.00
N193   N     0.16580   0.53564   0.05228   0.00000  Uiso   1.00
C194   C     0.22907   0.52881   0.12493   0.00000  Uiso   1.00
N195   N     0.20605   0.47979   0.13567   0.00000  Uiso   1.00
C196   C     0.22044   0.45662   0.18023   0.00000  Uiso   1.00
C197   C     0.26039   0.48301   0.21678   0.00000  Uiso   1.00
C198   C     0.28217   0.53485   0.20833   0.00000  Uiso   1.00
C199   C     0.26680   0.55775   0.16231   0.00000  Uiso   1.00
H200   H     0.26399   0.61642   0.96905   0.00000  Uiso   1.00
H201   H     0.11044   0.53890   0.98931   0.00000  Uiso   1.00
H202   H     0.20259   0.41670   0.18544   0.00000  Uiso   1.00
H203   H     0.31336   0.55658   0.23540   0.00000  Uiso   1.00
H204   H     0.29065   0.58940   0.05840   0.00000  Uiso   1.00
H205   H     0.28505   0.59715   0.15539   0.00000  Uiso   1.00
C206   C     0.15602   0.26475   0.49821   0.00000  Uiso   1.00
C207   C     0.19617   0.26154   0.53629   0.00000  Uiso   1.00
C208   C     0.24629   0.27698   0.52321   0.00000  Uiso   1.00
C209   C     0.25623   0.29420   0.47183   0.00000  Uiso   1.00
C210   C     0.21490   0.29677   0.43490   0.00000  Uiso   1.00
N211   N     0.16644   0.28257   0.44895   0.00000  Uiso   1.00
C212   C     0.10278   0.24658   0.51002   0.00000  Uiso   1.00
N213   N     0.06878   0.27851   0.50507   0.00000  Uiso   1.00
C214   C     0.01945   0.26318   0.51637   0.00000  Uiso   1.00
C215   C     1.00190   0.21277   0.53232   0.00000  Uiso   1.00
C216   C     0.03626   0.17909   0.53626   0.00000  Uiso   1.00
C217   C     0.08675   0.19607   0.52587   0.00000  Uiso   1.00
H218   H     0.27713   0.27464   0.55281   0.00000  Uiso   1.00
H219   H     0.22110   0.31060   0.39513   0.00000  Uiso   1.00
H220   H     0.99406   0.29020   0.51290   0.00000  Uiso   1.00
H221   H     0.02447   0.14006   0.54900   0.00000  Uiso   1.00
H222   H     0.18874   0.24745   0.57575   0.00000  Uiso   1.00
H223   H     0.11300   0.16989   0.52973   0.00000  Uiso   1.00
C224   C     0.06470   0.89213   0.75212   0.00000  Uiso   1.00
C225   C     0.07106   0.90741   0.69917   0.00000  Uiso   1.00
C226   C     0.05288   0.95068   0.68230   0.00000  Uiso   1.00
C227   C     0.02885   0.97911   0.71805   0.00000  Uiso   1.00
C228   C     1.02679   0.96497   0.77174   0.00000  Uiso   1.00
N229   N     1.04347   0.92181   0.78684   0.00000  Uiso   1.00
C230   C     0.07525   0.84183   0.76927   0.00000  Uiso   1.00
N231   N     0.04704   0.81669   0.80696   0.00000  Uiso   1.00
C232   C     0.05262   0.76922   0.82287   0.00000  Uiso   1.00
C233   C     0.08862   0.74416   0.80066   0.00000  Uiso   1.00
C234   C     0.11859   0.76976   0.76225   0.00000  Uiso   1.00
C235   C     0.11201   0.81836   0.74642   0.00000  Uiso   1.00
H236   H     0.05477  -0.04010   0.64035   0.00000  Uiso   1.00
H237   H     1.00841   0.98571   0.80057   0.00000  Uiso   1.00
H238   H     1.02893   0.75122   0.85284   0.00000  Uiso   1.00
H239   H     0.14714   0.75221   0.74427   0.00000  Uiso   1.00
H240   H     0.08661   0.88437   0.66983   0.00000  Uiso   1.00
H241   H     0.13582   0.83733   0.71705   0.00000  Uiso   1.00
C242   C     0.01134   0.38728   0.72306   0.00000  Uiso   1.00
C243   C     0.99650   0.41334   0.76834   0.00000  Uiso   1.00
C244   C     1.01255   0.46700   0.77734   0.00000  Uiso   1.00
C245   C     0.04386   0.49512   0.74192   0.00000  Uiso   1.00
C246   C     0.05470   0.46851   0.69497   0.00000  Uiso   1.00
N247   N     0.03916   0.41591   0.68731   0.00000  Uiso   1.00
C248   C     0.99934   0.32955   0.71449   0.00000  Uiso   1.00
N249   N     0.02635   0.30487   0.68070   0.00000  Uiso   1.00
C250   C     0.01540   0.25217   0.66947   0.00000  Uiso   1.00
C251   C     0.97419   0.22166   0.69166   0.00000  Uiso   1.00
C252   C     0.94794   0.24608   0.72866   0.00000  Uiso   1.00
C253   C     0.95989   0.29951   0.73982   0.00000  Uiso   1.00
H254   H     1.00409   0.48579   0.81453   0.00000  Uiso   1.00
H255   H     0.07944   0.48864   0.66699   0.00000  Uiso   1.00
H256   H     0.03681   0.23482   0.64106   0.00000  Uiso   1.00
H257   H     0.91578   0.22394   0.74672   0.00000  Uiso   1.00
H258   H     0.97557   0.39281   0.79883   0.00000  Uiso   1.00
H259   H     0.93641   0.31665   0.76598   0.00000  Uiso   1.00
C260   C     0.82048   0.72568   0.00458   0.00000  Uiso   1.00
C261   C     0.79199   0.74865   0.96693   0.00000  Uiso   1.00
C262   C     0.74790   0.76395  -0.01826   0.00000  Uiso   1.00
C263   C     0.73248   0.75682   0.03411   0.00000  Uiso   1.00
C264   C     0.75990   0.73003   0.06907   0.00000  Uiso   1.00
N265   N     0.80293   0.71566   0.05381   0.00000  Uiso   1.00
C266   C     0.87114   0.71644  -0.00655   0.00000  Uiso   1.00
N267   N     0.88565   0.67226   0.00883   0.00000  Uiso   1.00
C268   C     0.93234   0.66256   0.00028   0.00000  Uiso   1.00
C269   C    -0.03217   0.69912   0.97624   0.00000  Uiso   1.00
C270   C     0.95408   0.74546   0.96147   0.00000  Uiso   1.00
C271   C     0.90566   0.75407   0.96959   0.00000  Uiso   1.00
H272   H     0.72812   0.78476   0.95360   0.00000  Uiso   1.00
H273   H     0.74913   0.72366   0.10974   0.00000  Uiso   1.00
H274   H     0.94167   0.62634   0.01222   0.00000  Uiso   1.00
H275   H    -0.01973   0.77439   0.94243   0.00000  Uiso   1.00
H276   H     0.80477   0.75647   0.92723   0.00000  Uiso   1.00
H277   H     0.89556   0.79011   0.95809   0.00000  Uiso   1.00
C278   C     0.50698   0.66727   0.24808   0.00000  Uiso   1.00
C279   C     0.55045   0.70129   0.27227   0.00000  Uiso   1.00
C280   C     0.55609   0.75451   0.26624   0.00000  Uiso   1.00
C281   C     0.51830   0.77401   0.23684   0.00000  Uiso   1.00
C282   C     0.47460   0.73892   0.21487   0.00000  Uiso   1.00
N283   N     0.47039   0.68704   0.22038   0.00000  Uiso   1.00
C284   C     0.49946   0.61049   0.25221   0.00000  Uiso   1.00
N285   N     0.47215   0.57847   0.21106   0.00000  Uiso   1.00
C286   C     0.45695   0.52652   0.21529   0.00000  Uiso   1.00
C287   C     0.46613   0.50465   0.26456   0.00000  Uiso   1.00
C288   C     0.49787   0.53605   0.30585   0.00000  Uiso   1.00
C289   C     0.51488   0.58902   0.29971   0.00000  Uiso   1.00
H290   H     0.59071   0.78031   0.28329   0.00000  Uiso   1.00
H291   H     0.44497   0.75233   0.19129   0.00000  Uiso   1.00
H292   H     0.43263   0.50375   0.18238   0.00000  Uiso   1.00
H293   H     0.50545   0.52087   0.34468   0.00000  Uiso   1.00
H294   H     0.58053   0.68688   0.29398   0.00000  Uiso   1.00
H295   H     0.53601   0.61343   0.33355   0.00000  Uiso   1.00
loop_
_geom_bond_atom_site_label_1
_geom_bond_atom_site_label_2
_geom_bond_distance
_geom_bond_site_symmetry_2
_ccdc_geom_bond_type
Yb0    O3      2.091   .     S
Yb0    O4      2.109   .     S
Yb0    O5      2.174   .     S
Yb0    O7      2.094   .     S
Yb0    O8      2.091   .     S
Yb0    O12     2.164   .     S
Yb1    O6      2.139   .     S
Yb1    O9      2.094   .     S
Yb1    O10     2.127   .     S
Yb1    O13     2.134   .     S
Yb1    O14     2.103   .     S
Yb1    O16     2.094   .     S
C2     O14     1.295   .     A
C2     O16     1.291   .     A
C2     C269    1.476   .     S
O3     C11     1.287   .     A
O4     C11     1.291   .     A
O5     C15     1.276   .     A
O6     C15     1.272   .     A
O7     C17     1.291   .     A
O8     C17     1.290   .     A
O9     C18     1.289   .     A
O10    C18     1.296   .     A
C11    C245    1.474   .     S
O12    C19     1.272   .     A
O13    C19     1.263   .     A
C15    C233    1.485   .     S
C17    C179    1.470   .     S
C18    C89     1.484   .     S
C19    C191    1.475   .     S
Yb20   O23     2.114   .     S
Yb20   O24     2.093   .     S
Yb20   O25     2.194   .     S
Yb20   O27     2.106   .     S
Yb20   O28     2.102   .     S
Yb20   O32     2.182   .     S
Yb21   O26     2.128   .     S
Yb21   O29     2.087   .     S
Yb21   O30     2.127   .     S
Yb21   O33     2.123   .     S
Yb21   O34     2.105   .     S
Yb21   O36     2.091   1_565 S
C22    O34     1.295   .     A
C22    O36     1.291   1_565 A
C22    C107    1.478   1_565 S
O23    C31     1.290   .     A
O24    C31     1.288   .     A
O25    C35     1.284   .     A
O26    C35     1.275   .     A
O27    C37     1.290   .     A
O28    C37     1.289   .     A
O29    C38     1.283   .     A
O30    C38     1.296   .     A
C31    C143    1.477   .     S
O32    C39     1.267   .     A
O33    C39     1.260   .     A
C35    C161    1.486   .     S
O36    Yb21    2.091   1_545 S
O36    C22     1.291   1_545 A
C37    C263    1.477   .     S
C38    C281    1.474   .     S
C39    C83     1.489   .     S
Yb40   O43     2.101   .     S
Yb40   O45     2.192   .     S
Yb40   O47     2.111   .     S
Yb40   O48     2.098   .     S
Yb40   O52     2.196   .     S
Yb40   O44     2.118   1_545 S
Yb41   O46     2.118   .     S
Yb41   O49     2.094   .     S
Yb41   O50     2.127   .     S
Yb41   O53     2.122   .     S
Yb41   O54     2.100   .     S
Yb41   O56     2.073   .     S
C42    O54     1.295   .     A
C42    O56     1.290   .     A
C42    C119    1.460   .     S
O43    C51     1.283   .     A
O44    Yb40    2.118   1_565 S
O44    C51     1.291   1_565 A
O45    C55     1.278   .     A
O46    C55     1.262   .     A
O47    C57     1.292   .     A
O48    C57     1.289   .     A
O49    C58     1.287   .     A
O50    C58     1.296   .     A
C51    C137    1.473   .     S
C51    O44     1.291   1_545 A
O52    C59     1.277   .     A
O53    C59     1.259   .     A
C55    C155    1.484   .     S
C57    C227    1.479   1_645 S
C58    C215    1.479   .     S
C59    C251    1.477   .     S
Yb60   O63     2.104   .     S
Yb60   O64     2.098   .     S
Yb60   O65     2.184   .     S
Yb60   O67     2.091   .     S
Yb60   O68     2.112   .     S
Yb60   O72     2.174   .     S
Yb61   O66     2.119   .     S
Yb61   O69     2.104   .     S
Yb61   O70     2.116   .     S
Yb61   O73     2.130   .     S
Yb61   O74     2.095   .     S
Yb61   O76     2.082   .     S
C62    O74     1.294   .     A
C62    O76     1.292   .     A
C62    C125    1.468   .     S
O63    C71     1.289   .     A
O64    C71     1.288   .     A
O65    C75     1.273   .     A
O66    C75     1.261   .     A
O67    C77     1.285   .     A
O68    C77     1.292   .     A
O69    C78     1.290   .     A
O70    C78     1.294   .     A
C71    C287    1.474   .     S
O72    C79     1.277   .     A
O73    C79     1.264   .     A
C75    C101    1.483   .     S
C77    C197    1.472   .     S
C78    C209    1.479   .     S
C79    C173    1.467   .     S
C80    C81     1.395   .     A
C80    N85     1.364   .     A
C80    C86     1.472   1_554 S
C81    C82     1.391   .     A
C81    H96     1.083   .     S
C82    C83     1.407   .     A
C82    H92     1.083   .     S
C83    C84     1.406   .     A
C84    N85     1.367   .     A
C84    H93     1.082   .     S
C86    N87     1.358   .     A
C86    C80     1.472   1_556 S
C86    C91     1.403   1_556 A
N87    C88     1.358   .     A
C88    C89     1.406   .     A
C88    H94     1.082   .     S
C89    C90     1.406   .     A
C90    H95     1.083   .     S
C90    C91     1.404   1_556 A
C91    H97     1.083   .     S
C91    C86     1.403   1_554 A
C91    C90     1.404   1_554 A
C98    C99     1.401   .     A
C98    N103    1.364   .     A
C98    C104    1.480   .     S
C99    C100    1.390   .     A
C99    H114    1.082   .     S
C100   C101    1.405   .     A
C100   H110    1.082   .     S
C101   C102    1.404   .     A
C102   N103    1.364   .     A
C102   H111    1.082   .     S
C104   N105    1.360   .     A
C104   C109    1.406   .     A
N105   C106    1.360   .     A
C106   C107    1.405   .     A
C106   H112    1.082   .     S
C107   C108    1.401   .     A
C107   C22     1.478   1_545 S
C108   C109    1.397   .     A
C108   H113    1.083   .     S
C109   H115    1.083   .     S
C116   C117    1.400   .     A
C116   N121    1.364   .     A
C116   C122    1.466   .     S
C117   C118    1.390   .     A
C117   H132    1.083   .     S
C118   C119    1.400   .     A
C118   H128    1.083   .     S
C119   C120    1.398   .     A
C120   N121    1.360   .     A
C120   H129    1.083   .     S
C122   N123    1.358   .     A
C122   C127    1.404   .     A
N123   C124    1.356   .     A
C124   C125    1.402   .     A
C124   H130    1.082   .     S
C125   C126    1.401   .     A
C126   C127    1.396   .     A
C126   H131    1.083   .     S
C127   H133    1.083   .     S
C134   C135    1.403   .     A
C134   N139    1.360   .     A
C134   C140    1.471   1_545 S
C135   C136    1.393   .     A
C135   H150    1.083   .     S
C136   C137    1.401   .     A
C136   H146    1.083   .     S
C137   C138    1.407   .     A
C138   N139    1.362   .     A
C138   H147    1.083   .     S
C140   N141    1.360   .     A
C140   C134    1.471   1_565 S
C140   C145    1.401   1_565 A
N141   C142    1.363   .     A
C142   H148    1.082   .     S
C142   C143    1.407   1_556 A
C143   C144    1.402   .     A
C143   C142    1.407   1_554 A
C144   H149    1.083   .     S
C144   C145    1.393   1_564 A
C145   H151    1.083   .     S
C145   C140    1.401   1_545 A
C145   C144    1.393   1_546 A
C152   C153    1.408   .     A
C152   N157    1.362   .     A
C152   C158    1.487   1_545 S
C153   C154    1.398   .     A
C153   H168    1.081   .     S
C154   C155    1.402   .     A
C154   H164    1.083   .     S
C155   C156    1.407   .     A
C156   N157    1.360   .     A
C156   H165    1.082   .     S
C158   N159    1.364   .     A
C158   C163    1.404   .     A
C158   C152    1.487   1_565 S
N159   C160    1.363   .     A
C160   C161    1.405   .     A
C160   H166    1.082   .     S
C161   C162    1.405   .     A
C162   C163    1.394   .     A
C162   H167    1.083   .     S
C163   H169    1.081   1_565 S
H169   C163    1.081   1_545 S
C170   C171    1.400   .     A
C170   N175    1.365   .     A
C170   C176    1.474   .     S
C171   C172    1.388   .     A
C171   H186    1.082   .     S
C172   C173    1.402   .     A
C172   H182    1.084   .     S
C173   C174    1.399   .     A
C174   N175    1.362   .     A
C174   H183    1.081   .     S
C176   N177    1.360   .     A
C176   C181    1.405   .     A
N177   C178    1.358   .     A
C178   C179    1.404   .     A
C178   H184    1.082   .     S
C179   C180    1.401   .     A
C180   C181    1.393   .     A
C180   H185    1.083   .     S
C181   H187    1.082   .     S
C188   C189    1.408   .     A
C188   N193    1.356   .     A
C188   C194    1.471   .     S
C189   H204    1.082   .     S
C189   C190    1.399   1_554 A
C190   C191    1.400   .     A
C190   H200    1.083   .     S
C190   C189    1.399   1_556 A
C191   C192    1.406   .     A
C192   H201    1.083   .     S
C192   N193    1.354   1_556 A
N193   C192    1.354   1_554 A
C194   N195    1.364   .     A
C194   C199    1.399   .     A
N195   C196    1.359   .     A
C196   C197    1.401   .     A
C196   H202    1.083   .     S
C197   C198    1.406   .     A
C198   C199    1.393   .     A
C198   H203    1.083   .     S
C199   H205    1.083   .     S
C206   C207    1.404   .     A
C206   N211    1.360   .     A
C206   C212    1.476   .     S
C207   C208    1.399   .     A
C207   H222    1.083   .     S
C208   C209    1.401   .     A
C208   H218    1.083   .     S
C209   C210    1.406   .     A
C210   N211    1.362   .     A
C210   H219    1.082   .     S
C212   N213    1.364   .     A
C212   C217    1.399   .     A
N213   C214    1.365   .     A
C214   C215    1.404   1_455 A
C214   H220    1.082   1_455 S
C215   C214    1.404   1_655 A
C215   C216    1.404   1_655 A
C216   C217    1.393   .     A
C216   H221    1.083   .     S
C216   C215    1.404   1_455 A
C217   H223    1.083   .     S
H220   C214    1.082   1_655 S
C224   C225    1.406   .     A
C224   C230    1.483   .     S
C224   N229    1.362   1_455 A
C225   C226    1.397   .     A
C225   H240    1.082   .     S
C226   C227    1.403   .     A
C226   H236    1.083   1_565 S
C227   C228    1.404   1_455 A
C227   C57     1.479   1_465 S
C228   N229    1.361   .     A
C228   H237    1.082   .     S
C228   C227    1.404   1_655 A
N229   C224    1.362   1_655 A
C230   N231    1.363   .     A
C230   C235    1.404   .     A
N231   C232    1.361   .     A
C232   C233    1.404   .     A
C232   H238    1.082   1_455 S
C233   C234    1.406   .     A
C234   C235    1.396   .     A
C234   H239    1.083   .     S
C235   H241    1.082   .     S
H236   C226    1.083   1_545 S
H238   C232    1.082   1_655 S
C242   N247    1.363   .     A
C242   C243    1.408   1_455 A
C242   C248    1.488   1_455 S
C243   C244    1.392   .     A
C243   H258    1.080   .     S
C243   C242    1.408   1_655 A
C244   H254    1.084   .     S
C244   C245    1.400   1_655 A
C245   C246    1.405   .     A
C245   C244    1.400   1_455 A
C246   N247    1.362   .     A
C246   H255    1.083   .     S
C248   C253    1.402   .     A
C248   C242    1.488   1_655 S
C248   N249    1.368   1_655 A
N249   C250    1.367   .     A
N249   C248    1.368   1_455 A
C250   H256    1.080   .     S
C250   C251    1.401   1_455 A
C251   C252    1.402   .     A
C251   C250    1.401   1_655 A
C252   C253    1.386   .     A
C252   H257    1.084   .     S
C253   H259    1.080   .     S
C260   N265    1.361   .     A
C260   C266    1.476   .     S
C260   C261    1.403   1_554 A
C261   H276    1.083   .     S
C261   C260    1.403   1_556 A
C261   C262    1.395   1_556 A
C262   C263    1.403   .     A
C262   C261    1.395   1_554 A
C262   H272    1.083   1_554 S
C263   C264    1.405   .     A
C264   N265    1.361   .     A
C264   H273    1.082   .     S
C266   N267    1.361   .     A
C266   C271    1.404   1_554 A
N267   C268    1.362   .     A
C268   H274    1.082   .     S
C268   C269    1.405   1_654 A
C269   C268    1.405   1_456 A
C269   C270    1.401   1_455 A
C270   C271    1.395   .     A
C270   C269    1.401   1_655 A
C270   H275    1.083   1_655 S
C271   H277    1.083   .     S
C271   C266    1.404   1_556 A
H272   C262    1.083   1_556 S
H275   C270    1.083   1_455 S
C278   C279    1.401   .     A
C278   N283    1.364   .     A
C278   C284    1.476   .     S
C279   C280    1.394   .     A
C279   H294    1.082   .     S
C280   C281    1.404   .     A
C280   H290    1.083   .     S
C281   C282    1.400   .     A
C282   N283    1.361   .     A
C282   H291    1.082   .     S
C284   N285    1.360   .     A
C284   C289    1.405   .     A
N285   C286    1.358   .     A
C286   C287    1.404   .     A
C286   H292    1.082   .     S
C287   C288    1.403   .     A
C288   C289    1.397   .     A
C288   H293    1.083   .     S
C289   H295    1.082   .     S
