data_lcy+N248+E9
_audit_creation_date              2025-01-21
_audit_creation_method            'Materials Studio'
_symmetry_space_group_name_H-M    'P1'
_symmetry_Int_Tables_number       1
_symmetry_cell_setting            triclinic
loop_
_symmetry_equiv_pos_as_xyz
  x,y,z
_cell_length_a                    34.0081
_cell_length_b                    30.3548
_cell_length_c                    31.2074
_cell_angle_alpha                 89.8650
_cell_angle_beta                  88.3982
_cell_angle_gamma                 87.3032
loop_
_atom_site_label
_atom_site_type_symbol
_atom_site_fract_x
_atom_site_fract_y
_atom_site_fract_z
_atom_site_U_iso_or_equiv
_atom_site_adp_type
_atom_site_occupancy
O0     O     0.15081   0.67359   0.94494   0.00000  Uiso   1.00
Yb1    Yb    0.16754   0.61076   0.85486   0.00000  Uiso   1.00
C2     C     0.22454   0.58815   0.80517   0.00000  Uiso   1.00
Yb3    Yb    0.10397   0.64029   0.91366   0.00000  Uiso   1.00
O4     O     0.19930   0.65349   0.89464   0.00000  Uiso   1.00
C5     C     0.09038   0.66233   0.83539   0.00000  Uiso   1.00
C6     C     0.18695   0.67328   0.92967   0.00000  Uiso   1.00
O7     O     0.06204   0.69226   0.92567   0.00000  Uiso   1.00
C8     C     0.04543   0.67193   0.95637   0.00000  Uiso   1.00
O9     O     0.20129   0.55955   0.88716   0.00000  Uiso   1.00
O10    O     0.14239   0.58237   0.91004   0.00000  Uiso   1.00
O11    O     0.12537   0.56804   0.82866   0.00000  Uiso   1.00
O12    O     0.06197   0.63456   0.96627   0.00000  Uiso   1.00
O13    O     0.07343   0.58956   0.87478   0.00000  Uiso   1.00
C14    C     0.17820   0.56022   0.91820   0.00000  Uiso   1.00
C15    C     0.08993   0.56346   0.84462   0.00000  Uiso   1.00
O16    O     0.21641   0.56570   0.83896   0.00000  Uiso   1.00
O17    O     0.20230   0.62242   0.79912   0.00000  Uiso   1.00
O18    O     0.06674   0.64284   0.85801   0.00000  Uiso   1.00
O19    O     0.12642   0.66585   0.85417   0.00000  Uiso   1.00
O20    O     0.67688   0.92867   0.09261   0.00000  Uiso   1.00
Yb21   Yb    0.59368   0.86650   0.08560   0.00000  Uiso   1.00
C22    C     0.53917   0.84759   0.03807   0.00000  Uiso   1.00
Yb23   Yb    0.65320   0.89018   0.14693   0.00000  Uiso   1.00
O24    O     0.62952   0.90947   0.04441   0.00000  Uiso   1.00
C25    C     0.59787   0.94950   0.15651   0.00000  Uiso   1.00
C26    C     0.66040   0.93150   0.05496   0.00000  Uiso   1.00
O27    O     0.66617   0.93741   0.19411   0.00000  Uiso   1.00
C28    C     0.69585   0.91423   0.20717   0.00000  Uiso   1.00
O29    O     0.64281   0.85238   0.03973   0.00000  Uiso   1.00
O30    O     0.64827   0.83380   0.10630   0.00000  Uiso   1.00
O31    O     0.56707   0.83826   0.14128   0.00000  Uiso   1.00
O32    O     0.70432   0.87896   0.18576   0.00000  Uiso   1.00
O33    O     0.61604   0.85057   0.18861   0.00000  Uiso   1.00
C34    C     0.66472   0.83433   0.06559   0.00000  Uiso   1.00
C35    C     0.58356   0.83275   0.17801   0.00000  Uiso   1.00
O36    O     0.56836   0.82047   0.04486   0.00000  Uiso   1.00
O37    O     0.54145   0.88620   0.05387   0.00000  Uiso   1.00
O38    O     0.62497   0.94574   0.18144   0.00000  Uiso   1.00
O39    O     0.60470   0.92368   0.12040   0.00000  Uiso   1.00
O40    O     0.92534   0.16231   0.67193   0.00000  Uiso   1.00
Yb41   Yb    0.83934   0.16922   0.61361   0.00000  Uiso   1.00
C42    C     0.78101   0.21758   0.59391   0.00000  Uiso   1.00
Yb43   Yb    0.90280   0.10579   0.63775   0.00000  Uiso   1.00
O44    O     0.87449   0.21244   0.65382   0.00000  Uiso   1.00
C45    C     0.85132   0.09965   0.69827   0.00000  Uiso   1.00
C46    C     0.90696   0.20139   0.67446   0.00000  Uiso   1.00
O47    O     0.91958   0.05761   0.68437   0.00000  Uiso   1.00
C48    C     0.94855   0.04250   0.66086   0.00000  Uiso   1.00
O49    O     0.88568   0.21499   0.59732   0.00000  Uiso   1.00
O50    O     0.89431   0.14583   0.58162   0.00000  Uiso   1.00
O51    O     0.81486   0.11102   0.58854   0.00000  Uiso   1.00
O52    O     0.95545   0.06456   0.62666   0.00000  Uiso   1.00
O53    O     0.86654   0.06194   0.60231   0.00000  Uiso   1.00
C54    C     0.90852   0.18752   0.58027   0.00000  Uiso   1.00
C55    C     0.83289   0.07244   0.58523   0.00000  Uiso   1.00
O56    O     0.81018   0.20979   0.56772   0.00000  Uiso   1.00
O57    O     0.78550   0.20322   0.63214   0.00000  Uiso   1.00
O58    O     0.88016   0.07400   0.69519   0.00000  Uiso   1.00
O59    O     0.85368   0.13470   0.67002   0.00000  Uiso   1.00
O60    O     0.38225   0.30527   0.41901   0.00000  Uiso   1.00
Yb61   Yb    0.39911   0.39030   0.35346   0.00000  Uiso   1.00
C62    C     0.45279   0.44108   0.33207   0.00000  Uiso   1.00
Yb63   Yb    0.33614   0.33681   0.37975   0.00000  Uiso   1.00
O64    O     0.43178   0.35041   0.39752   0.00000  Uiso   1.00
C65    C     0.33600   0.39370   0.44051   0.00000  Uiso   1.00
C66    C     0.41860   0.31753   0.41935   0.00000  Uiso   1.00
O67    O     0.28852   0.33189   0.42483   0.00000  Uiso   1.00
C68    C     0.27656   0.29653   0.40859   0.00000  Uiso   1.00
O69    O     0.43100   0.36045   0.29950   0.00000  Uiso   1.00
O70    O     0.37954   0.32877   0.32933   0.00000  Uiso   1.00
O71    O     0.35556   0.41941   0.31239   0.00000  Uiso   1.00
O72    O     0.29808   0.28094   0.37727   0.00000  Uiso   1.00
O73    O     0.30309   0.37858   0.33462   0.00000  Uiso   1.00
C74    C     0.41010   0.32846   0.29853   0.00000  Uiso   1.00
C75    C     0.31928   0.40791   0.30975   0.00000  Uiso   1.00
O76    O     0.44845   0.40499   0.31161   0.00000  Uiso   1.00
O77    O     0.42939   0.44808   0.36408   0.00000  Uiso   1.00
O78    O     0.31274   0.36415   0.43953   0.00000  Uiso   1.00
O79    O     0.35521   0.39985   0.40137   0.00000  Uiso   1.00
C80    C     0.43256   0.80412   0.99689   0.00000  Uiso   1.00
N81    N     0.46483   0.77612  -0.00185   0.00000  Uiso   1.00
N82    N     0.49962   0.79066   0.00856   0.00000  Uiso   1.00
C83    C     0.50344   0.83380   0.01790   0.00000  Uiso   1.00
N84    N     0.47140   0.86209   1.01559   0.00000  Uiso   1.00
N85    N     0.43656   0.84755   1.00507   0.00000  Uiso   1.00
C86    C     0.39366   0.78654   0.99081   0.00000  Uiso   1.00
N87    N     0.36062   0.81346   0.98902   0.00000  Uiso   1.00
N88    N     0.32533   0.79659   0.98531   0.00000  Uiso   1.00
C89    C     0.32189   0.75220   0.98387   0.00000  Uiso   1.00
N90    N     0.35494   0.72551   0.98584   0.00000  Uiso   1.00
N91    N     0.39008   0.74230   0.98934   0.00000  Uiso   1.00
C92    C     0.28401   0.73247   0.97689   0.00000  Uiso   1.00
N93    N     0.28317   0.68806   0.97328   0.00000  Uiso   1.00
N94    N     0.25074   0.66931   0.96134   0.00000  Uiso   1.00
C95    C     0.21761   0.69406   0.95316   0.00000  Uiso   1.00
N96    N     0.21790   0.73857   0.95776   0.00000  Uiso   1.00
N97    N     0.25059   0.75748   0.96962   0.00000  Uiso   1.00
C98    C     0.44065   0.21475   0.22851   0.00000  Uiso   1.00
N99    N     0.41104   0.21537   0.25856   0.00000  Uiso   1.00
N100   N     0.40008   0.25249   0.27907   0.00000  Uiso   1.00
C101   C     0.41855   0.29030   0.27068   0.00000  Uiso   1.00
N102   N     0.44782   0.29002   0.24015   0.00000  Uiso   1.00
N103   N     0.45855   0.25288   0.21927   0.00000  Uiso   1.00
C104   C     0.45643   0.17247   0.21107   0.00000  Uiso   1.00
N105   N     0.48057   0.17063   0.17563   0.00000  Uiso   1.00
N106   N     0.49801   0.13238   0.16293   0.00000  Uiso   1.00
C107   C     0.49229   0.09482   0.18558   0.00000  Uiso   1.00
N108   N     0.46788   0.09671   0.22070   0.00000  Uiso   1.00
N109   N     0.45005   0.13472   0.23302   0.00000  Uiso   1.00
C110   C     0.51606   0.05426   0.17619   0.00000  Uiso   1.00
N111   N     0.52627   0.02684   0.20883   0.00000  Uiso   1.00
N112   N     0.55128   0.99239   0.20200   0.00000  Uiso   1.00
C113   C     0.56631   0.98347   0.16213   0.00000  Uiso   1.00
N114   N     0.55556   0.01031   0.12916   0.00000  Uiso   1.00
N115   N     0.53103   0.04535   0.13615   0.00000  Uiso   1.00
C116   C     0.66944   0.25309   0.55016   0.00000  Uiso   1.00
N117   N     0.67543   0.24911   0.59287   0.00000  Uiso   1.00
N118   N     0.71158   0.24063   0.60727   0.00000  Uiso   1.00
C119   C     0.74307   0.23643   0.57955   0.00000  Uiso   1.00
N120   N     0.73713   0.24160   0.53700   0.00000  Uiso   1.00
N121   N     0.70104   0.24985   0.52260   0.00000  Uiso   1.00
C122   C     0.62943   0.25750   0.53343   0.00000  Uiso   1.00
N123   N     0.62401   0.25301   0.49081   0.00000  Uiso   1.00
N124   N     0.58801   0.25584   0.47515   0.00000  Uiso   1.00
C125   C     0.55590   0.26324   0.50142   0.00000  Uiso   1.00
N126   N     0.56120   0.26767   0.54417   0.00000  Uiso   1.00
N127   N     0.59733   0.26449   0.55994   0.00000  Uiso   1.00
C128   C     0.51682   0.26964   0.48264   0.00000  Uiso   1.00
N129   N     0.48530   0.28710   0.50566   0.00000  Uiso   1.00
N130   N     0.45182   0.29878   0.48629   0.00000  Uiso   1.00
C131   C     0.44855   0.29270   0.44341   0.00000  Uiso   1.00
N132   N     0.47978   0.27438   0.42087   0.00000  Uiso   1.00
N133   N     0.51310   0.26281   0.44007   0.00000  Uiso   1.00
C134   C     0.77992   0.07492   0.80460   0.00000  Uiso   1.00
N135   N     0.77206   0.05770   0.76579   0.00000  Uiso   1.00
N136   N     0.79325   0.06798   0.73096   0.00000  Uiso   1.00
C137   C     0.82259   0.09649   0.73354   0.00000  Uiso   1.00
N138   N     0.83016   0.11418   0.77218   0.00000  Uiso   1.00
N139   N     0.80912   0.10370   0.80710   0.00000  Uiso   1.00
C140   C     0.75982   0.05902   0.84353   0.00000  Uiso   1.00
N141   N     0.77316   0.06799   0.88310   0.00000  Uiso   1.00
N142   N     0.75695   0.05010   0.91806   0.00000  Uiso   1.00
C143   C     0.72680   0.02267   0.91462   0.00000  Uiso   1.00
N144   N     0.71321   1.01423   0.87511   0.00000  Uiso   1.00
N145   N     0.72951   0.03188   0.84024   0.00000  Uiso   1.00
C146   C     0.70955   1.00091   0.95232   0.00000  Uiso   1.00
N147   N     0.67774   0.97641   0.94746   0.00000  Uiso   1.00
N148   N     0.66226   0.95512   0.98059   0.00000  Uiso   1.00
C149   C     0.67795   0.95722   0.01999   0.00000  Uiso   1.00
N150   N     0.70990   0.98174   0.02513   0.00000  Uiso   1.00
N151   N     0.72540   0.00332   0.99180   0.00000  Uiso   1.00
C152   C     0.78798  -0.00352   0.48923   0.00000  Uiso   1.00
N153   N     0.82449  -0.01370   0.50405   0.00000  Uiso   1.00
N154   N     0.83795   0.00812   0.53731   0.00000  Uiso   1.00
C155   C     0.81533   0.04076   0.55686   0.00000  Uiso   1.00
N156   N     0.77845   0.04973   0.54282   0.00000  Uiso   1.00
N157   N     0.76500   0.02791   0.50982   0.00000  Uiso   1.00
C158   C     0.77506  -0.02086   0.44830   0.00000  Uiso   1.00
N159   N     0.74136  -0.00363   0.43152   0.00000  Uiso   1.00
N160   N     0.73097  -0.01477   0.39243   0.00000  Uiso   1.00
C161   C     0.75381   0.95636   0.36847   0.00000  Uiso   1.00
N162   N     0.78732   0.93838   0.38536   0.00000  Uiso   1.00
N163   N     0.79792   0.94984   0.42455   0.00000  Uiso   1.00
C164   C     0.74195   0.94618   0.32486   0.00000  Uiso   1.00
N165   N     0.75777   0.91086   0.30256   0.00000  Uiso   1.00
N166   N     0.74443   0.90109   0.26399   0.00000  Uiso   1.00
C167   C     0.71526   0.92673   0.24636   0.00000  Uiso   1.00
N168   N     0.70016   0.96230   0.26843   0.00000  Uiso   1.00
N169   N     0.71321  -0.02816   0.30686   0.00000  Uiso   1.00
C170   C     0.34664   0.46249   0.55458   0.00000  Uiso   1.00
N171   N     0.35325   0.48320   0.51649   0.00000  Uiso   1.00
N172   N     0.35090   0.46143   0.47954   0.00000  Uiso   1.00
C173   C     0.34095   0.41863   0.47972   0.00000  Uiso   1.00
N174   N     0.33467   0.39811   0.51772   0.00000  Uiso   1.00
N175   N     0.33763   0.41952   0.55442   0.00000  Uiso   1.00
C176   C     0.34435   0.48633   0.59540   0.00000  Uiso   1.00
N177   N     0.34348   0.46311   0.63261   0.00000  Uiso   1.00
N178   N     0.33382   0.48299   0.66959   0.00000  Uiso   1.00
C179   C     0.32441   0.52686   0.67076   0.00000  Uiso   1.00
N180   N     0.32648   0.55045   0.63374   0.00000  Uiso   1.00
N181   N     0.33641   0.53055   0.59668   0.00000  Uiso   1.00
C182   C     0.30514   0.54613   0.70939   0.00000  Uiso   1.00
N183   N     0.28743   0.58707   0.70799   0.00000  Uiso   1.00
N184   N     0.26322   0.60123   0.73980   0.00000  Uiso   1.00
C185   C     0.25579   0.57499   0.77409   0.00000  Uiso   1.00
N186   N     0.27449   0.53465   0.77626   0.00000  Uiso   1.00
N187   N     0.29865   0.52044   0.74437   0.00000  Uiso   1.00
C188   C     0.20978   0.50582   0.03617   0.00000  Uiso   1.00
N189   N     0.23660   0.50892   0.00342   0.00000  Uiso   1.00
N190   N     0.22598   0.52498   0.96556   0.00000  Uiso   1.00
C191   C     0.18817   0.53890   0.95897   0.00000  Uiso   1.00
N192   N     0.16115   0.53582   0.99163   0.00000  Uiso   1.00
N193   N     0.17174   0.51931   0.02955   0.00000  Uiso   1.00
C194   C     0.22301   0.49104   0.07855   0.00000  Uiso   1.00
N195   N     0.19739   0.47749   0.10959   0.00000  Uiso   1.00
N196   N     0.21025   0.46527   0.14813   0.00000  Uiso   1.00
C197   C     0.24906   0.46684   0.15705   0.00000  Uiso   1.00
N198   N     0.27446   0.48031   0.12594   0.00000  Uiso   1.00
N199   N     0.26174   0.49195   0.08745   0.00000  Uiso   1.00
C200   C     0.26439   0.45455   0.19929   0.00000  Uiso   1.00
N201   N     0.30066   0.46703   0.20950   0.00000  Uiso   1.00
N202   N     0.31679   0.45384   0.24591   0.00000  Uiso   1.00
C203   C     0.29743   0.42750   0.27373   0.00000  Uiso   1.00
N204   N     0.26076   0.41534   0.26395   0.00000  Uiso   1.00
N205   N     0.24436   0.42893   0.22744   0.00000  Uiso   1.00
C206   C     0.16850   0.25396   0.45605   0.00000  Uiso   1.00
N207   N     0.18801   0.23065   0.42407   0.00000  Uiso   1.00
N208   N     0.22308   0.24293   0.40890   0.00000  Uiso   1.00
C209   C     0.23980   0.27870   0.42560   0.00000  Uiso   1.00
N210   N     0.22035   0.30135   0.45770   0.00000  Uiso   1.00
N211   N     0.18552   0.28933   0.47257   0.00000  Uiso   1.00
C212   C     0.12918   0.24294   0.47268   0.00000  Uiso   1.00
N213   N     0.10891   0.27184   0.49920   0.00000  Uiso   1.00
N214   N     0.07357   0.26287   0.51536   0.00000  Uiso   1.00
C215   C     0.05707   0.22442   0.50589   0.00000  Uiso   1.00
N216   N     0.07725   0.19534   0.47929   0.00000  Uiso   1.00
N217   N     0.11265   0.20448   0.46284   0.00000  Uiso   1.00
C218   C     0.01817   0.21477   0.52472   0.00000  Uiso   1.00
N219   N     0.00341   0.17422   0.52089   0.00000  Uiso   1.00
N220   N     0.96848   0.16568   0.53869   0.00000  Uiso   1.00
C221   C     0.94692   0.19737   0.56077   0.00000  Uiso   1.00
N222   N     0.96159   0.23793   0.56453   0.00000  Uiso   1.00
N223   N    -0.00339   0.24640   0.54694   0.00000  Uiso   1.00
C224   C     0.99723   0.91662   0.68519   0.00000  Uiso   1.00
N225   N     1.01690   0.94425   0.65873   0.00000  Uiso   1.00
N226   N     1.00224   0.98511   0.65131   0.00000  Uiso   1.00
C227   C     0.96803  -0.00012   0.67105   0.00000  Uiso   1.00
N228   N     0.94883  -0.02768   0.69774   0.00000  Uiso   1.00
N229   N     0.96306   0.93150   0.70458   0.00000  Uiso   1.00
C230   C     1.01213   0.87147   0.69394   0.00000  Uiso   1.00
N231   N    -0.01294   0.84179   0.71014   0.00000  Uiso   1.00
N232   N     0.00038   0.80210   0.72275   0.00000  Uiso   1.00
C233   C     0.03937   0.79059   0.71984   0.00000  Uiso   1.00
N234   N     0.06447   0.81996   0.70285   0.00000  Uiso   1.00
N235   N     1.05105   0.85965   0.68983   0.00000  Uiso   1.00
C236   C     0.05427   0.75042   0.74142   0.00000  Uiso   1.00
N237   N     0.02854   0.72225   0.75917   0.00000  Uiso   1.00
N238   N     0.04076   0.69109   0.78648   0.00000  Uiso   1.00
C239   C     0.07918   0.68692   0.79698   0.00000  Uiso   1.00
N240   N     0.10517   0.71396   0.77800   0.00000  Uiso   1.00
N241   N     0.09297   0.74508   0.75059   0.00000  Uiso   1.00
C242   C     0.03027   0.45670   0.79800   0.00000  Uiso   1.00
N243   N     0.06906   0.46121   0.78875   0.00000  Uiso   1.00
N244   N     0.08741   0.49587   0.80286   0.00000  Uiso   1.00
C245   C     0.06784   0.52737   0.82703   0.00000  Uiso   1.00
N246   N     0.02890   0.52308   0.83629   0.00000  Uiso   1.00
N247   N     1.01038   0.48847   0.82176   0.00000  Uiso   1.00
C248   C     1.01093   0.41741   0.78294   0.00000  Uiso   1.00
N249   N     0.97109   0.41608   0.78245   0.00000  Uiso   1.00
N250   N     0.95416   0.38052   0.76778   0.00000  Uiso   1.00
C251   C     0.97641   0.34483   0.75356   0.00000  Uiso   1.00
N252   N     1.01620   0.34610   0.75438   0.00000  Uiso   1.00
N253   N     0.03310   0.38176   0.76865   0.00000  Uiso   1.00
C254   C     0.95786   0.30621   0.73583   0.00000  Uiso   1.00
N255   N     0.97927   0.26798   0.72785   0.00000  Uiso   1.00
N256   N     0.96289   0.23384   0.70963   0.00000  Uiso   1.00
C257   C     0.92455   0.23684   0.69849   0.00000  Uiso   1.00
N258   N     0.90315   0.27494   0.70679   0.00000  Uiso   1.00
N259   N     0.91941   0.30887   0.72530   0.00000  Uiso   1.00
C260   C     0.77897   0.78408   0.03798   0.00000  Uiso   1.00
N261   N     0.76077   0.77549   0.07612   0.00000  Uiso   1.00
N262   N     0.72423   0.79143   0.08465   0.00000  Uiso   1.00
C263   C     0.70446   0.81618   0.05524   0.00000  Uiso   1.00
N264   N     0.72252   0.82462   0.01700   0.00000  Uiso   1.00
N265   N     0.75920   0.80896   0.00859   0.00000  Uiso   1.00
C266   C     0.81962   0.76749   0.02884   0.00000  Uiso   1.00
N267   N     0.84019   0.78330  -0.00522   0.00000  Uiso   1.00
N268   N     0.87717   0.76885  -0.01348   0.00000  Uiso   1.00
C269   C     0.89496   0.73786   0.01180   0.00000  Uiso   1.00
N270   N     0.87437   0.72178   0.04581   0.00000  Uiso   1.00
N271   N     0.83739   0.73654   0.05432   0.00000  Uiso   1.00
C272   C     0.93551   0.72184   0.00123   0.00000  Uiso   1.00
N273   N     0.95159   0.68426   0.01873   0.00000  Uiso   1.00
N274   N     0.98740   0.66861   0.00593   0.00000  Uiso   1.00
C275   C     0.00837   0.69036   0.97556   0.00000  Uiso   1.00
N276   N     0.99246   0.72823   0.95887   0.00000  Uiso   1.00
N277   N     0.95678   0.74363   0.97138   0.00000  Uiso   1.00
C278   C     0.54520   0.72329   0.24333   0.00000  Uiso   1.00
N279   N     0.52458   0.74101   0.21048   0.00000  Uiso   1.00
N280   N     0.53487   0.77856   0.19243   0.00000  Uiso   1.00
C281   C     0.56623   0.79991   0.20638   0.00000  Uiso   1.00
N282   N     0.58606   0.78310   0.24042   0.00000  Uiso   1.00
N283   N     0.57551   0.74554   0.25882   0.00000  Uiso   1.00
C284   C     0.53773   0.67830   0.25723   0.00000  Uiso   1.00
N285   N     0.54878   0.66281   0.29614   0.00000  Uiso   1.00
N286   N     0.54199   0.62142   0.30758   0.00000  Uiso   1.00
C287   C     0.52494   0.59388   0.28008   0.00000  Uiso   1.00
N288   N     0.51444   0.60930   0.24106   0.00000  Uiso   1.00
N289   N     0.52068   0.65074   0.22990   0.00000  Uiso   1.00
C290   C     0.51371   0.54993   0.29370   0.00000  Uiso   1.00
N291   N     0.50361   0.51979   0.26430   0.00000  Uiso   1.00
N292   N     0.48715   0.48268   0.27665   0.00000  Uiso   1.00
C293   C     0.47998   0.47466   0.31884   0.00000  Uiso   1.00
N294   N     0.49100   0.50428   0.34820   0.00000  Uiso   1.00
N295   N     0.50789   0.54107   0.33591   0.00000  Uiso   1.00
loop_
_geom_bond_atom_site_label_1
_geom_bond_atom_site_label_2
_geom_bond_distance
_geom_bond_site_symmetry_2
_ccdc_geom_bond_type
O0     C6      1.305   .     A
O0     Yb3     2.181   .     S
Yb1    Yb3     2.907   .     S
Yb1    O4      2.146   .     S
Yb1    O9      2.154   .     S
Yb1    O10     2.102   .     S
Yb1    O11     2.157   .     S
Yb1    O16     2.150   .     S
Yb1    O17     2.114   .     S
Yb1    O19     2.129   .     S
C2     O16     1.285   .     A
C2     O17     1.274   .     A
C2     C185    1.461   .     S
Yb3    O7      2.103   .     S
Yb3    O10     2.142   .     S
Yb3    O12     2.158   .     S
Yb3    O13     2.270   .     S
Yb3    O18     2.177   .     S
Yb3    O19     2.145   .     S
O4     C6      1.299   .     A
C5     O18     1.227   .     D
C5     O19     1.382   .     S
C5     C239    1.461   .     S
C6     C95     1.459   .     S
O7     C8      1.272   .     A
C8     O12     1.284   .     A
C8     C275    1.467   .     S
O9     C14     1.229   .     D
O10    C14     1.393   .     S
O11    C15     1.305   .     A
O13    C15     1.327   .     A
C14    C191    1.467   .     S
C15    C245    1.473   .     S
O20    C26     1.317   .     A
O20    Yb23    2.211   .     S
Yb21   Yb23    2.939   .     S
Yb21   O24     2.212   .     S
Yb21   O29     2.197   .     S
Yb21   O30     2.177   .     S
Yb21   O31     2.133   .     S
Yb21   O36     2.120   .     S
Yb21   O37     2.119   .     S
Yb21   O39     2.104   .     S
C22    O36     1.281   .     A
C22    O37     1.279   .     A
C22    C83     1.463   .     S
Yb23   O27     2.127   .     S
Yb23   O30     2.148   .     S
Yb23   O32     2.160   .     S
Yb23   O33     2.186   .     S
Yb23   O38     2.173   .     S
Yb23   O39     2.087   .     S
O24    C26     1.321   .     A
C25    O38     1.224   .     D
C25    O39     1.382   .     S
C25    C113    1.460   .     S
C26    C149    1.469   .     S
O27    C28     1.279   .     A
C28    O32     1.280   .     A
C28    C167    1.465   .     S
O29    C34     1.225   .     D
O30    C34     1.374   .     S
O31    C35     1.297   .     A
O33    C35     1.304   .     A
C34    C263    1.463   .     S
C35    C281    1.465   .     S
O40    C46     1.316   .     A
O40    Yb43    2.201   .     S
Yb41   Yb43    2.937   .     S
Yb41   O44     2.228   .     S
Yb41   O49     2.198   .     S
Yb41   O50     2.184   .     S
Yb41   O51     2.147   .     S
Yb41   O56     2.123   .     S
Yb41   O57     2.125   .     S
Yb41   O59     2.104   .     S
C42    O56     1.281   .     A
C42    O57     1.280   .     A
C42    C119    1.468   .     S
Yb43   O47     2.130   .     S
Yb43   O50     2.148   .     S
Yb43   O52     2.156   .     S
Yb43   O53     2.180   .     S
Yb43   O58     2.173   .     S
Yb43   O59     2.085   .     S
O44    C46     1.323   .     A
C45    O58     1.225   .     D
C45    O59     1.384   .     S
C45    C137    1.457   .     S
C46    C257    1.472   .     S
O47    C48     1.280   .     A
C48    O52     1.280   .     A
C48    C227    1.464   .     S
O49    C54     1.225   .     D
O50    C54     1.376   .     S
O51    C55     1.299   .     A
O53    C55     1.302   .     A
C54    C221    1.469   .     S
C55    C155    1.467   .     S
O60    C66     1.308   .     A
O60    Yb63    2.199   .     S
Yb61   Yb63    2.849   .     S
Yb61   O64     2.131   .     S
Yb61   O69     2.155   .     S
Yb61   O70     2.156   .     S
Yb61   O71     2.144   .     S
Yb61   O76     2.160   .     S
Yb61   O77     2.107   .     S
Yb61   O79     2.094   .     S
C62    O76     1.286   .     A
C62    O77     1.271   .     A
C62    C293    1.459   .     S
Yb63   O67     2.126   .     S
Yb63   O70     2.133   .     S
Yb63   O72     2.184   .     S
Yb63   O73     2.191   .     S
Yb63   O78     2.160   .     S
Yb63   O79     2.164   .     S
O64    C66     1.297   .     A
C65    O78     1.225   .     D
C65    O79     1.386   .     S
C65    C173    1.458   .     S
C66    C131    1.462   .     S
O67    C68     1.276   .     A
C68    O72     1.282   .     A
C68    C209    1.471   .     S
O69    C74     1.231   .     D
O70    C74     1.395   .     S
O71    C75     1.303   .     A
O73    C75     1.310   .     A
C74    C101    1.463   .     S
C75    C203    1.473   .     S
C80    N85     1.357   .     A
C80    C86     1.467   .     S
C80    N81     1.358   1_556 A
N81    N82     1.331   .     A
N81    C80     1.358   1_554 A
N82    C83     1.355   .     A
C83    N84     1.359   1_554 A
N84    N85     1.333   .     A
N84    C83     1.359   1_556 A
C86    N87     1.360   .     A
C86    N91     1.355   .     A
N87    N88     1.335   .     A
N88    C89     1.359   .     A
C89    N90     1.357   .     A
C89    C92     1.468   .     S
N90    N91     1.328   .     A
C92    N93     1.355   .     A
C92    N97     1.361   .     A
N93    N94     1.327   .     A
N94    C95     1.355   .     A
C95    N96     1.359   .     A
N96    N97     1.337   .     A
C98    N99     1.356   .     A
C98    N103    1.359   .     A
C98    C104    1.467   .     S
N99    N100    1.330   .     A
N100   C101    1.356   .     A
C101   N102    1.358   .     A
N102   N103    1.334   .     A
C104   N105    1.359   .     A
C104   N109    1.357   .     A
N105   N106    1.334   .     A
N106   C107    1.359   .     A
C107   N108    1.356   .     A
C107   C110    1.466   .     S
N108   N109    1.330   .     A
C110   N111    1.356   .     A
C110   N115    1.359   .     A
N111   N112    1.330   1_545 A
N112   C113    1.355   .     A
N112   N111    1.330   1_565 A
C113   N114    1.358   1_565 A
N114   N115    1.335   .     A
N114   C113    1.358   1_545 A
C116   N117    1.358   .     A
C116   N121    1.358   .     A
C116   C122    1.471   .     S
N117   N118    1.334   .     A
N118   C119    1.359   .     A
C119   N120    1.356   .     A
N120   N121    1.331   .     A
C122   N123    1.356   .     A
C122   N127    1.360   .     A
N123   N124    1.330   .     A
N124   C125    1.357   .     A
C125   N126    1.359   .     A
C125   C128    1.472   .     S
N126   N127    1.335   .     A
C128   N129    1.361   .     A
C128   N133    1.355   .     A
N129   N130    1.337   .     A
N130   C131    1.360   .     A
C131   N132    1.355   .     A
N132   N133    1.329   .     A
C134   N135    1.359   .     A
C134   N139    1.357   .     A
C134   C140    1.469   .     S
N135   N136    1.332   .     A
N136   C137    1.355   .     A
C137   N138    1.357   .     A
N138   N139    1.333   .     A
C140   N141    1.360   .     A
C140   N145    1.356   .     A
N141   N142    1.335   .     A
N142   C143    1.358   .     A
C143   N144    1.358   1_545 A
C143   C146    1.469   1_545 S
N144   C143    1.358   1_565 A
N144   N145    1.330   1_565 A
N145   N144    1.330   1_545 A
C146   N147    1.354   .     A
C146   C143    1.469   1_565 S
C146   N151    1.362   1_565 A
N147   N148    1.328   .     A
N148   C149    1.357   1_556 A
C149   N150    1.359   .     A
C149   N148    1.357   1_554 A
N150   N151    1.337   1_564 A
N151   C146    1.362   1_545 A
N151   N150    1.337   1_546 A
C152   N153    1.359   .     A
C152   N157    1.356   .     A
C152   C158    1.469   .     S
N153   N154    1.335   .     A
N154   C155    1.360   .     A
C155   N156    1.355   .     A
N156   N157    1.329   .     A
C158   N159    1.355   .     A
C158   N163    1.360   1_545 A
N159   N160    1.328   .     A
N160   C161    1.355   1_545 A
C161   N162    1.359   .     A
C161   C164    1.468   .     S
C161   N160    1.355   1_565 A
N162   N163    1.336   .     A
N163   C158    1.360   1_565 A
C164   N165    1.361   .     A
C164   N169    1.355   1_565 A
N165   N166    1.337   .     A
N166   C167    1.360   .     A
C167   N168    1.355   .     A
N168   N169    1.328   1_565 A
N169   C164    1.355   1_545 A
N169   N168    1.328   1_545 A
C170   N171    1.362   .     A
C170   N175    1.354   .     A
C170   C176    1.465   .     S
N171   N172    1.337   .     A
N172   C173    1.358   .     A
C173   N174    1.354   .     A
N174   N175    1.327   .     A
C176   N177    1.357   .     A
C176   N181    1.357   .     A
N177   N178    1.330   .     A
N178   C179    1.355   .     A
C179   N180    1.360   .     A
C179   C182    1.466   .     S
N180   N181    1.334   .     A
C182   N183    1.356   .     A
C182   N187    1.359   .     A
N183   N184    1.331   .     A
N184   C185    1.358   .     A
C185   N186    1.355   .     A
N186   N187    1.332   .     A
C188   N189    1.357   .     A
C188   N193    1.360   .     A
C188   C194    1.471   .     S
N189   N190    1.330   1_554 A
N190   C191    1.356   .     A
N190   N189    1.330   1_556 A
C191   N192    1.359   .     A
N192   N193    1.336   1_556 A
N193   N192    1.336   1_554 A
C194   N195    1.361   .     A
C194   N199    1.355   .     A
N195   N196    1.337   .     A
N196   C197    1.359   .     A
C197   N198    1.357   .     A
C197   C200    1.472   .     S
N198   N199    1.330   .     A
C200   N201    1.354   .     A
C200   N205    1.361   .     A
N201   N202    1.328   .     A
N202   C203    1.357   .     A
C203   N204    1.360   .     A
N204   N205    1.338   .     A
C206   N207    1.364   .     A
C206   N211    1.353   .     A
C206   C212    1.474   .     S
N207   N208    1.340   .     A
N208   C209    1.360   .     A
C209   N210    1.355   .     A
N210   N211    1.327   .     A
C212   N213    1.358   .     A
C212   N217    1.359   .     A
N213   N214    1.330   .     A
N214   C215    1.355   .     A
C215   N216    1.362   .     A
C215   C218    1.474   .     S
N216   N217    1.336   .     A
C218   N219    1.358   .     A
C218   N223    1.360   .     A
N219   N220    1.334   1_455 A
N220   C221    1.359   .     A
N220   N219    1.334   1_655 A
C221   N222    1.357   .     A
N222   N223    1.333   1_655 A
N223   N222    1.333   1_455 A
C224   N225    1.361   .     A
C224   N229    1.354   .     A
C224   C230    1.466   .     S
N225   N226    1.337   .     A
N226   C227    1.359   1_565 A
C227   N228    1.356   .     A
C227   N226    1.359   1_545 A
N228   N229    1.328   1_545 A
N229   N228    1.328   1_565 A
C230   N235    1.358   .     A
C230   N231    1.357   1_655 A
N231   N232    1.330   .     A
N231   C230    1.357   1_455 A
N232   C233    1.356   .     A
C233   N234    1.360   .     A
C233   C236    1.468   .     S
N234   N235    1.335   1_455 A
N235   N234    1.335   1_655 A
C236   N237    1.358   .     A
C236   N241    1.357   .     A
N237   N238    1.331   .     A
N238   C239    1.356   .     A
C239   N240    1.357   .     A
N240   N241    1.332   .     A
C242   N243    1.356   .     A
C242   N247    1.361   1_455 A
C242   C248    1.473   1_455 S
N243   N244    1.330   .     A
N244   C245    1.357   .     A
C245   N246    1.360   .     A
N246   N247    1.337   1_455 A
N247   C242    1.361   1_655 A
N247   N246    1.337   1_655 A
C248   N249    1.358   .     A
C248   C242    1.473   1_655 S
C248   N253    1.358   1_655 A
N249   N250    1.335   .     A
N250   C251    1.360   .     A
C251   N252    1.356   .     A
C251   C254    1.473   .     S
N252   N253    1.332   1_655 A
N253   C248    1.358   1_455 A
N253   N252    1.332   1_455 A
C254   N255    1.360   .     A
C254   N259    1.356   .     A
N255   N256    1.335   .     A
N256   C257    1.358   .     A
C257   N258    1.359   .     A
N258   N259    1.332   .     A
C260   N261    1.357   .     A
C260   N265    1.359   .     A
C260   C266    1.469   .     S
N261   N262    1.332   .     A
N262   C263    1.357   .     A
C263   N264    1.356   .     A
N264   N265    1.333   .     A
C266   N267    1.355   .     A
C266   N271    1.360   .     A
N267   N268    1.331   .     A
N268   C269    1.358   .     A
C269   N270    1.358   .     A
C269   C272    1.469   .     S
N270   N271    1.335   .     A
C272   N273    1.361   .     A
C272   N277    1.354   1_554 A
N273   N274    1.337   .     A
N274   C275    1.359   1_654 A
C275   N274    1.359   1_456 A
C275   N276    1.356   1_455 A
N276   N277    1.328   .     A
N276   C275    1.356   1_655 A
N277   C272    1.354   1_556 A
C278   N279    1.354   .     A
C278   N283    1.359   .     A
C278   C284    1.464   .     S
N279   N280    1.328   .     A
N280   C281    1.356   .     A
C281   N282    1.359   .     A
N282   N283    1.335   .     A
C284   N285    1.357   .     A
C284   N289    1.357   .     A
N285   N286    1.334   .     A
N286   C287    1.360   .     A
C287   N288    1.355   .     A
C287   C290    1.464   .     S
N288   N289    1.329   .     A
C290   N291    1.359   .     A
C290   N295    1.355   .     A
N291   N292    1.333   .     A
N292   C293    1.356   .     A
C293   N294    1.358   .     A
N294   N295    1.331   .     A
