data_lcy+N173+E14
_audit_creation_date              2025-01-21
_audit_creation_method            'Materials Studio'
_symmetry_space_group_name_H-M    'P1'
_symmetry_Int_Tables_number       1
_symmetry_cell_setting            triclinic
loop_
_symmetry_equiv_pos_as_xyz
  x,y,z
_cell_length_a                    17.9091
_cell_length_b                    20.3025
_cell_length_c                    17.5105
_cell_angle_alpha                 98.0581
_cell_angle_beta                  83.8984
_cell_angle_gamma                 101.1906
loop_
_atom_site_label
_atom_site_type_symbol
_atom_site_fract_x
_atom_site_fract_y
_atom_site_fract_z
_atom_site_U_iso_or_equiv
_atom_site_adp_type
_atom_site_occupancy
Gd0    Gd    0.01732   0.60125   0.85362   0.00000  Uiso   1.00
Gd1    Gd    0.06028   0.55228   0.93300   0.00000  Uiso   1.00
O2     O     0.00666   0.45410   0.87619   0.00000  Uiso   1.00
O3     O     0.01613   0.50308   0.77033   0.00000  Uiso   1.00
O4     O     0.09394   0.56036   0.75970   0.00000  Uiso   1.00
O5     O     0.16643   0.54715   0.84802   0.00000  Uiso   1.00
O6     O     0.07145   0.69892   0.80587   0.00000  Uiso   1.00
O7     O    -0.03580   0.65168   0.77172   0.00000  Uiso   1.00
O8     O     0.12538   0.67979   0.87336   0.00000  Uiso   1.00
C9     C     0.01616   0.70281   0.76914   0.00000  Uiso   1.00
O10    O     0.11932   0.64962   0.98873   0.00000  Uiso   1.00
O11    O    -0.04962   0.65219   0.94892   0.00000  Uiso   1.00
C12    C     0.15872   0.55298   0.77718   0.00000  Uiso   1.00
O13    O    -0.04910   0.56302   1.00491   0.00000  Uiso   1.00
O14    O     0.17389   0.51769   0.92894   0.00000  Uiso   1.00
O15    O     0.09165   0.49969   0.02288   0.00000  Uiso   1.00
C16    C     0.00506   0.44875   0.80361   0.00000  Uiso   1.00
C17    C     0.15774   0.49504   0.99383   0.00000  Uiso   1.00
C18    C    -0.07816   0.61441   1.00003   0.00000  Uiso   1.00
C19    C     0.15250   0.68756   0.93926   0.00000  Uiso   1.00
Gd20   Gd    0.61416   0.84114   0.07824   0.00000  Uiso   1.00
Gd21   Gd    0.55595   0.92911   0.13154   0.00000  Uiso   1.00
O22    O     0.45188   0.87187   0.07904   0.00000  Uiso   1.00
O23    O     0.50808   0.78944   0.01948   0.00000  Uiso   1.00
O24    O     0.57294   0.78926   0.18081   0.00000  Uiso   1.00
O25    O     0.52255   0.87592   0.24070   0.00000  Uiso   1.00
O26    O     0.67976   0.76173   0.02348   0.00000  Uiso   1.00
O27    O     0.62389   0.74910   0.13346   0.00000  Uiso   1.00
O28    O     0.71584   0.89301   0.14257   0.00000  Uiso   1.00
C29    C     0.66992   0.72823   0.07985   0.00000  Uiso   1.00
O30    O     0.66114   0.98029   0.18768   0.00000  Uiso   1.00
O31    O     0.65669   0.89412  -0.02202   0.00000  Uiso   1.00
C32    C     0.54068   0.81760   0.24114   0.00000  Uiso   1.00
O33    O     0.59475   0.97685   0.02057   0.00000  Uiso   1.00
O34    O     0.48995   1.01295   0.17146   0.00000  Uiso   1.00
O35    O     0.60414   0.03238   0.19585   0.00000  Uiso   1.00
C36    C     0.44853   0.81630   0.03493   0.00000  Uiso   1.00
C37    C     0.54387   0.05681   0.19724   0.00000  Uiso   1.00
C38    C     0.63897   0.94951  -0.03102   0.00000  Uiso   1.00
C39    C     0.71462   0.94747   0.18859   0.00000  Uiso   1.00
Gd40   Gd    0.96712   0.05107   0.58461   0.00000  Uiso   1.00
Gd41   Gd    0.86261   0.14710   0.58792   0.00000  Uiso   1.00
O42    O     0.90970   0.13774   0.69542   0.00000  Uiso   1.00
O43    O     1.02530   0.13077   0.67488   0.00000  Uiso   1.00
O44    O     1.03829   0.11692   0.50569   0.00000  Uiso   1.00
O45    O     0.97536   0.20474   0.53647   0.00000  Uiso   1.00
O46    O     0.92655   0.97179   0.66355   0.00000  Uiso   1.00
O47    O     0.03929  -0.02046   0.60896   0.00000  Uiso   1.00
O48    O     0.92710  -0.02564   0.48283   0.00000  Uiso   1.00
C49    C     0.98788   0.94752   0.65248   0.00000  Uiso   1.00
O50    O     0.87601   0.05848   0.50764   0.00000  Uiso   1.00
O51    O     0.86146   0.01159   0.66504   0.00000  Uiso   1.00
C52    C     1.03615   0.18007   0.50952   0.00000  Uiso   1.00
O53    O     0.77366   0.07545   0.64850   0.00000  Uiso   1.00
O54    O     0.80919   0.23535   0.63325   0.00000  Uiso   1.00
O55    O     0.78360   0.18088   0.52092   0.00000  Uiso   1.00
C56    C     0.97659   0.16546   0.70486   0.00000  Uiso   1.00
C57    C     0.76887   0.22697   0.57514   0.00000  Uiso   1.00
C58    C     0.79522   0.03049   0.68229   0.00000  Uiso   1.00
C59    C     0.88340   0.00747   0.46099   0.00000  Uiso   1.00
Gd60   Gd    0.41767   0.44582   0.34377   0.00000  Uiso   1.00
Gd61   Gd    0.48623   0.43957   0.43076   0.00000  Uiso   1.00
O62    O     0.43519   0.49642   0.52862   0.00000  Uiso   1.00
O63    O     0.35987   0.51222   0.44440   0.00000  Uiso   1.00
O64    O     0.31904   0.38321   0.39774   0.00000  Uiso   1.00
O65    O     0.39666   0.35021   0.46815   0.00000  Uiso   1.00
O66    O     0.40455   0.48778   0.23376   0.00000  Uiso   1.00
O67    O     0.31019   0.42855   0.28222   0.00000  Uiso   1.00
O68    O     0.44900   0.35544   0.26983   0.00000  Uiso   1.00
C69    C     0.33713   0.45989   0.22625   0.00000  Uiso   1.00
O70    O     0.53946   0.36438   0.34589   0.00000  Uiso   1.00
O71    O     0.41484   0.55177   0.38555   0.00000  Uiso   1.00
C72    C     0.32901   0.34659   0.44712   0.00000  Uiso   1.00
O73    O     0.53428   0.54239   0.38465   0.00000  Uiso   1.00
O74    O     0.47901   0.35408   0.50111   0.00000  Uiso   1.00
O75    O     0.57666   0.43369   0.50453   0.00000  Uiso   1.00
C76    C     0.37534   0.51496   0.51597   0.00000  Uiso   1.00
C77    C     0.54600   0.37614   0.52380   0.00000  Uiso   1.00
C78    C     0.48452   0.58061   0.38210   0.00000  Uiso   1.00
C79    C     0.50695   0.33561   0.28592   0.00000  Uiso   1.00
C80    C     0.36582   0.74700   0.93286   0.00000  Uiso   1.00
C81    C     0.37349   0.78503   1.00603   0.00000  Uiso   1.00
C82    C     0.30706   0.79662   0.05240   0.00000  Uiso   1.00
C83    C     0.23464   0.76871   0.02818   0.00000  Uiso   1.00
C84    C     0.22659   0.73044   0.95569   0.00000  Uiso   1.00
C85    C     0.29266   0.72038   0.90760   0.00000  Uiso   1.00
H86    H     0.41582   0.73802   0.89520   0.00000  Uiso   1.00
H87    H     0.31093   0.82584   0.10938   0.00000  Uiso   1.00
H88    H     0.18466   0.77489   0.06755   0.00000  Uiso   1.00
H89    H     0.28766   0.68856   0.85249   0.00000  Uiso   1.00
C90    C     0.58857   0.24558   0.26857   0.00000  Uiso   1.00
C91    C     0.52317   0.26759   0.25124   0.00000  Uiso   1.00
C92    C     0.46472   0.21908   0.21652   0.00000  Uiso   1.00
C93    C     0.47166   0.15076   0.20134   0.00000  Uiso   1.00
C94    C     0.53716   0.12894   0.21893   0.00000  Uiso   1.00
C95    C     0.59640   0.17736   0.25144   0.00000  Uiso   1.00
H96    H     0.63245   0.28118   0.29797   0.00000  Uiso   1.00
H97    H     0.41151   0.23307   0.20572   0.00000  Uiso   1.00
H98    H     0.42518   0.11475   0.17587   0.00000  Uiso   1.00
H99    H     0.64771   0.16241   0.26529   0.00000  Uiso   1.00
C100   C     0.71059   0.33062   0.60718   0.00000  Uiso   1.00
C101   C     0.70646   0.26350   0.57265   0.00000  Uiso   1.00
C102   C     0.64183   0.23113   0.53435   0.00000  Uiso   1.00
C103   C     0.58387   0.26645   0.52728   0.00000  Uiso   1.00
C104   C     0.59079   0.33517   0.55617   0.00000  Uiso   1.00
C105   C     0.65360   0.36664   0.59798   0.00000  Uiso   1.00
H106   H     0.76012   0.35673   0.63698   0.00000  Uiso   1.00
H107   H     0.63712   0.17889   0.50874   0.00000  Uiso   1.00
H108   H     0.53688   0.24129   0.49336   0.00000  Uiso   1.00
H109   H     0.66106   0.41998   0.61934   0.00000  Uiso   1.00
C110   C     0.67291   0.01425   0.77204   0.00000  Uiso   1.00
C111   C     0.75007   0.00802   0.75345   0.00000  Uiso   1.00
C112   C     0.78968  -0.01018   0.80994   0.00000  Uiso   1.00
C113   C     0.75359   0.97646   0.88172   0.00000  Uiso   1.00
C114   C     0.67615   0.97991   0.89977   0.00000  Uiso   1.00
C115   C     0.63580   0.99944   0.84476   0.00000  Uiso   1.00
H116   H     0.64096   0.02965   0.73050   0.00000  Uiso   1.00
H117   H     0.84977  -0.01268   0.79988   0.00000  Uiso   1.00
H118   H     0.78620   0.96149   0.92287   0.00000  Uiso   1.00
H119   H     0.57540   1.00072   0.85689   0.00000  Uiso   1.00
C120   C     0.85766   0.93824   0.33116   0.00000  Uiso   1.00
C121   C     0.84446   0.99189   0.38818   0.00000  Uiso   1.00
C122   C     0.79666   1.03492   0.37338   0.00000  Uiso   1.00
C123   C     0.75935   1.02335   0.30555   0.00000  Uiso   1.00
C124   C     0.76925   0.96807   0.24966   0.00000  Uiso   1.00
C125   C     0.81985   0.92622   0.26260   0.00000  Uiso   1.00
H126   H     0.89497  -0.09534   0.34057   0.00000  Uiso   1.00
H127   H     0.78593   1.07684   0.41570   0.00000  Uiso   1.00
H128   H     0.71993   1.05604   0.29894   0.00000  Uiso   1.00
H129   H     0.82750   0.88232   0.22156   0.00000  Uiso   1.00
C130   C     0.34085   0.52457   0.65809   0.00000  Uiso   1.00
C131   C     0.32537   0.53585   0.58376   0.00000  Uiso   1.00
C132   C     0.25742   0.55725   0.57567   0.00000  Uiso   1.00
C133   C     0.20505   0.56462   0.63992   0.00000  Uiso   1.00
C134   C     0.21885   0.54975   0.71313   0.00000  Uiso   1.00
C135   C     0.28818   0.53139   0.72189   0.00000  Uiso   1.00
H136   H     0.39228   0.50654   0.66659   0.00000  Uiso   1.00
H137   H     0.24355   0.56620   0.51954   0.00000  Uiso   1.00
H138   H     0.15206   0.58002   0.63135   0.00000  Uiso   1.00
H139   H     0.30048   0.51998   0.77759   0.00000  Uiso   1.00
C140   C     0.17833   0.43101   0.09573   0.00000  Uiso   1.00
C141   C     0.21020   0.47197   0.03795   0.00000  Uiso   1.00
C142   C     0.28730   0.50363   0.03752   0.00000  Uiso   1.00
C143   C     0.32992   0.49831   0.09807   0.00000  Uiso   1.00
C144   C     0.29565   0.46148   0.15907   0.00000  Uiso   1.00
C145   C     0.22055   0.42575   0.15575   0.00000  Uiso   1.00
H146   H     0.11918   0.40605   0.09701   0.00000  Uiso   1.00
H147   H     0.31252   0.53607  -0.00607   0.00000  Uiso   1.00
H148   H     0.38847   0.52468   0.09881   0.00000  Uiso   1.00
H149   H     0.19370   0.39554   0.20082   0.00000  Uiso   1.00
C150   C     0.24711   0.23349   0.45001   0.00000  Uiso   1.00
C151   C     0.25980   0.30256   0.47701   0.00000  Uiso   1.00
C152   C     0.19724   0.33244   0.51072   0.00000  Uiso   1.00
C153   C     0.12344   0.29376   0.51731   0.00000  Uiso   1.00
C154   C     0.11049   0.22439   0.49019   0.00000  Uiso   1.00
C155   C     0.17346   0.19498   0.45623   0.00000  Uiso   1.00
H156   H     0.29348   0.21021   0.42008   0.00000  Uiso   1.00
H157   H     0.20494   0.38635   0.52940   0.00000  Uiso   1.00
H158   H     0.07691   0.31780   0.54452   0.00000  Uiso   1.00
H159   H     0.16588   0.14183   0.43414   0.00000  Uiso   1.00
C160   C     0.06877   0.87021   0.68730   0.00000  Uiso   1.00
C161   C    -0.00386   0.88557   0.68333   0.00000  Uiso   1.00
C162   C     0.93090   0.83943   0.70486   0.00000  Uiso   1.00
C163   C     0.93786   0.77838   0.72903   0.00000  Uiso   1.00
C164   C     0.01008   0.76331   0.73429   0.00000  Uiso   1.00
C165   C     0.07554   0.80983   0.71397   0.00000  Uiso   1.00
H166   H     0.11997   0.90494   0.67090   0.00000  Uiso   1.00
H167   H     0.87429   0.85002   0.70200   0.00000  Uiso   1.00
H168   H     0.88660   0.74383   0.74581   0.00000  Uiso   1.00
H169   H     0.13182   0.79939   0.71861   0.00000  Uiso   1.00
C170   C     0.06060   0.35388   0.72726   0.00000  Uiso   1.00
C171   C    -0.00376   0.37997   0.76271   0.00000  Uiso   1.00
C172   C     0.92979   0.33527   0.78301   0.00000  Uiso   1.00
C173   C     0.92720   0.26584   0.76930   0.00000  Uiso   1.00
C174   C     0.99056   0.23865   0.73311   0.00000  Uiso   1.00
C175   C     0.05757   0.28329   0.71193   0.00000  Uiso   1.00
H176   H     0.11366   0.38761   0.71429   0.00000  Uiso   1.00
H177   H     0.88076   0.35439   0.81293   0.00000  Uiso   1.00
H178   H     0.87404   0.23343   0.78593   0.00000  Uiso   1.00
H179   H     0.10659   0.26392   0.68297   0.00000  Uiso   1.00
C180   C     0.71641   0.62198   1.03381   0.00000  Uiso   1.00
C181   C     0.71937   0.68077   1.08668   0.00000  Uiso   1.00
C182   C     0.78571   0.70696   1.12521   0.00000  Uiso   1.00
C183   C     0.85194   0.68022   1.10312   0.00000  Uiso   1.00
C184   C     0.85097   0.62550   1.04457   0.00000  Uiso   1.00
C185   C     0.78194   0.59370   1.01376   0.00000  Uiso   1.00
H186   H     0.66624   0.60274   1.00198   0.00000  Uiso   1.00
H187   H     0.78927   0.75344   1.16456   0.00000  Uiso   1.00
H188   H    -0.09468   0.70601   1.12598   0.00000  Uiso   1.00
H189   H     0.78096   0.55225   0.96718   0.00000  Uiso   1.00
C190   C     0.58927   0.74950   0.32430   0.00000  Uiso   1.00
C191   C     0.52794   0.77843   0.30785   0.00000  Uiso   1.00
C192   C     0.45375   0.74846   0.33162   0.00000  Uiso   1.00
C193   C     0.44066   0.68666   0.36225   0.00000  Uiso   1.00
C194   C     0.50172   0.65333   0.36970   0.00000  Uiso   1.00
C195   C     0.57640   0.68736   0.35448   0.00000  Uiso   1.00
H196   H     0.64705   0.77135   0.30506   0.00000  Uiso   1.00
H197   H     0.40528   0.76836   0.31846   0.00000  Uiso   1.00
H198   H     0.38204   0.66229   0.37498   0.00000  Uiso   1.00
H199   H     0.62486   0.66394   0.36012   0.00000  Uiso   1.00
loop_
_geom_bond_atom_site_label_1
_geom_bond_atom_site_label_2
_geom_bond_distance
_geom_bond_site_symmetry_2
_ccdc_geom_bond_type
Gd0    O3      2.297   .     S
Gd0    O4      2.204   .     S
Gd0    O6      2.262   .     S
Gd0    O7      2.256   .     S
Gd0    O8      2.280   .     S
Gd0    O11     2.205   .     S
Gd1    O2      2.188   .     S
Gd1    O5      2.296   .     S
Gd1    O10     2.201   .     S
Gd1    O13     2.244   .     S
Gd1    O14     2.269   .     S
Gd1    O15     2.196   1_556 S
O2     C16     1.263   .     A
O3     C16     1.291   .     A
O4     C12     1.272   .     A
O5     C12     1.287   .     A
O6     C9      1.257   .     A
O7     C9      1.255   .     A
O8     C19     1.277   .     A
C9     C164    1.473   .     S
O10    C19     1.264   .     A
O11    C18     1.262   .     A
C12    C134    1.474   .     S
O13    C18     1.270   .     A
O14    C17     1.269   .     A
O15    Gd1     2.196   1_554 S
O15    C17     1.253   1_554 A
C16    C171    1.465   .     S
C17    O15     1.253   1_556 A
C17    C141    1.458   1_556 S
C18    C184    1.457   1_455 S
C19    C84     1.471   .     S
Gd20   O23     2.260   .     S
Gd20   O24     2.197   .     S
Gd20   O26     2.227   .     S
Gd20   O27     2.264   .     S
Gd20   O28     2.248   .     S
Gd20   O31     2.179   .     S
Gd21   O22     2.212   .     S
Gd21   O25     2.294   .     S
Gd21   O30     2.223   .     S
Gd21   O33     2.275   .     S
Gd21   O34     2.248   .     S
Gd21   O35     2.292   1_565 S
O22    C36     1.270   .     A
O23    C36     1.277   .     A
O24    C32     1.269   .     A
O25    C32     1.288   .     A
O26    C29     1.254   .     A
O27    C29     1.265   .     A
O28    C39     1.276   .     A
C29    C181    1.453   1_554 S
O30    C39     1.271   .     A
O31    C38     1.261   .     A
C32    C191    1.477   .     S
O33    C38     1.277   .     A
O34    C37     1.255   1_565 A
O35    C37     1.269   .     A
O35    Gd21    2.292   1_545 S
C36    C81     1.479   1_554 S
C37    C94     1.485   .     S
C37    O34     1.255   1_545 A
C38    C114    1.474   1_554 S
C39    C124    1.488   .     S
Gd40   O43     2.276   .     S
Gd40   O44     2.192   .     S
Gd40   O48     2.275   .     S
Gd40   O51     2.317   .     S
Gd40   O46     2.233   1_545 S
Gd40   O47     2.232   1_655 S
Gd41   O42     2.189   .     S
Gd41   O45     2.291   .     S
Gd41   O50     2.158   .     S
Gd41   O53     2.225   .     S
Gd41   O54     2.205   .     S
Gd41   O55     2.192   .     S
O42    C56     1.238   .     A
O43    C56     1.253   .     A
O44    C52     1.282   .     A
O45    C52     1.302   .     A
O46    C49     1.275   .     A
O46    Gd40    2.233   1_565 S
O47    Gd40    2.232   1_455 S
O47    C49     1.268   1_445 A
O48    C59     1.245   .     A
C49    O47     1.268   1_665 A
C49    C161    1.475   1_655 S
O50    C59     1.245   .     A
O51    C58     1.309   .     A
C52    C154    1.491   1_655 S
O53    C58     1.292   .     A
O54    C57     1.283   .     A
O55    C57     1.281   .     A
C56    C174    1.480   .     S
C57    C101    1.464   .     S
C58    C111    1.489   .     S
C59    C121    1.484   1_545 S
Gd60   O63     2.341   .     S
Gd60   O64     2.177   .     S
Gd60   O66     2.264   .     S
Gd60   O67     2.250   .     S
Gd60   O68     2.222   .     S
Gd60   O71     2.181   .     S
Gd61   O62     2.151   .     S
Gd61   O65     2.296   .     S
Gd61   O70     2.253   .     S
Gd61   O73     2.319   .     S
Gd61   O74     2.242   .     S
Gd61   O75     2.206   .     S
O62    C76     1.253   .     A
O63    C76     1.303   .     A
O64    C72     1.264   .     A
O65    C72     1.289   .     A
O66    C69     1.242   .     A
O67    C69     1.246   .     A
O68    C79     1.255   .     A
C69    C144    1.464   .     S
O70    C79     1.268   .     A
O71    C78     1.270   .     A
C72    C151    1.474   .     S
O73    C78     1.298   .     A
O74    C77     1.281   .     A
O75    C77     1.266   .     A
C76    C131    1.473   .     S
C77    C104    1.464   .     S
C78    C194    1.490   .     S
C79    C91     1.498   .     S
C80    C81     1.406   .     A
C80    C85     1.409   .     A
C80    H86     1.084   .     S
C81    C82     1.407   1_556 A
C81    C36     1.479   1_556 S
C82    C83     1.395   .     A
C82    H87     1.089   .     S
C82    C81     1.407   1_554 A
C83    H88     1.086   .     S
C83    C84     1.398   1_554 A
C84    C85     1.409   .     A
C84    C83     1.398   1_556 A
C85    H89     1.085   .     S
C90    C91     1.407   .     A
C90    C95     1.406   .     A
C90    H96     1.080   .     S
C91    C92     1.415   .     A
C92    C93     1.402   .     A
C92    H97     1.088   .     S
C93    C94     1.408   .     A
C93    H98     1.085   .     S
C94    C95     1.408   .     A
C95    H99     1.082   .     S
C100   C101    1.403   .     A
C100   C105    1.400   .     A
C100   H106    1.086   .     S
C101   C102    1.403   .     A
C102   C103    1.396   .     A
C102   H107    1.083   .     S
C103   C104    1.402   .     A
C103   H108    1.085   .     S
C104   C105    1.405   .     A
C105   H109    1.082   .     S
C110   C111    1.411   .     A
C110   H116    1.084   .     S
C110   C115    1.415   1_545 A
C111   C112    1.404   .     A
C112   H117    1.082   .     S
C112   C113    1.388   1_545 A
C113   C114    1.402   .     A
C113   H118    1.083   .     S
C113   C112    1.388   1_565 A
C114   C115    1.405   .     A
C114   C38     1.474   1_556 S
C115   H119    1.085   .     S
C115   C110    1.415   1_565 A
C120   C121    1.409   .     A
C120   C125    1.409   .     A
C120   H126    1.082   1_565 S
C121   C122    1.401   .     A
C121   C59     1.484   1_565 S
C122   C123    1.394   .     A
C122   H127    1.080   .     S
C123   C124    1.408   .     A
C123   H128    1.083   .     S
C124   C125    1.411   .     A
C125   H129    1.084   .     S
H126   C120    1.082   1_545 S
C130   C131    1.417   .     A
C130   C135    1.393   .     A
C130   H136    1.086   .     S
C131   C132    1.396   .     A
C132   C133    1.397   .     A
C132   H137    1.086   .     S
C133   C134    1.414   .     A
C133   H138    1.086   .     S
C134   C135    1.393   .     A
C135   H139    1.087   .     S
C140   C141    1.403   .     A
C140   C145    1.385   .     A
C140   H146    1.081   .     S
C141   C142    1.405   .     A
C141   C17     1.458   1_554 S
C142   C143    1.398   .     A
C142   H147    1.083   .     S
C143   C144    1.408   .     A
C143   H148    1.081   .     S
C144   C145    1.402   .     A
C145   H149    1.082   .     S
C150   C151    1.398   .     A
C150   C155    1.399   .     A
C150   H156    1.086   .     S
C151   C152    1.412   .     A
C152   C153    1.402   .     A
C152   H157    1.084   .     S
C153   C154    1.404   .     A
C153   H158    1.081   .     S
C154   C155    1.415   .     A
C154   C52     1.491   1_455 S
C155   H159    1.082   .     S
C160   C161    1.406   .     A
C160   C165    1.402   .     A
C160   H166    1.082   .     S
C161   C162    1.402   1_455 A
C161   C49     1.475   1_455 S
C162   C163    1.396   .     A
C162   H167    1.084   .     S
C162   C161    1.402   1_655 A
C163   H168    1.082   .     S
C163   C164    1.401   1_655 A
C164   C165    1.403   .     A
C164   C163    1.401   1_455 A
C165   H169    1.083   .     S
C170   C171    1.410   .     A
C170   C175    1.412   .     A
C170   H176    1.081   .     S
C171   C172    1.396   1_455 A
C172   C173    1.389   .     A
C172   H177    1.083   .     S
C172   C171    1.396   1_655 A
C173   C174    1.409   .     A
C173   H178    1.084   .     S
C174   C175    1.406   1_655 A
C175   H179    1.080   .     S
C175   C174    1.406   1_455 A
C180   C181    1.400   .     A
C180   C185    1.396   .     A
C180   H186    1.086   .     S
C181   C182    1.405   .     A
C181   C29     1.453   1_556 S
C182   C183    1.395   .     A
C182   H187    1.083   .     S
C183   C184    1.401   .     A
C183   H188    1.085   1_655 S
C184   C185    1.404   .     A
C184   C18     1.457   1_655 S
C185   H189    1.086   .     S
H188   C183    1.085   1_455 S
C190   C191    1.414   .     A
C190   C195    1.404   .     A
C190   H196    1.082   .     S
C191   C192    1.396   .     A
C192   C193    1.402   .     A
C192   H197    1.084   .     S
C193   C194    1.419   .     A
C193   H198    1.085   .     S
C194   C195    1.398   .     A
C195   H199    1.086   .     S
