data_lcy+N394+E70
_audit_creation_date              2025-01-21
_audit_creation_method            'Materials Studio'
_symmetry_space_group_name_H-M    'P1'
_symmetry_Int_Tables_number       1
_symmetry_cell_setting            triclinic
loop_
_symmetry_equiv_pos_as_xyz
  x,y,z
_cell_length_a                    18.6113
_cell_length_b                    17.4705
_cell_length_c                    16.8114
_cell_angle_alpha                 103.3104
_cell_angle_beta                  98.5941
_cell_angle_gamma                 89.9224
loop_
_atom_site_label
_atom_site_type_symbol
_atom_site_fract_x
_atom_site_fract_y
_atom_site_fract_z
_atom_site_U_iso_or_equiv
_atom_site_adp_type
_atom_site_occupancy
Pr0    Pr    0.10851   0.77867   0.95103   0.00000  Uiso   1.00
Pr1    Pr    0.17371   0.63856   1.01654   0.00000  Uiso   1.00
O2     O     0.09240   0.67823   0.10704   0.00000  Uiso   1.00
O3     O     0.02477   0.74900   1.02798   0.00000  Uiso   1.00
O4     O     1.01141   0.79888   0.85740   0.00000  Uiso   1.00
O5     O     0.09962   0.88146   0.88099   0.00000  Uiso   1.00
O6     O     0.21111   0.76346   1.03605   0.00000  Uiso   1.00
O7     O     0.22640   0.78798   0.91926   0.00000  Uiso   1.00
C8     C     0.05749   0.56375   0.92599   0.00000  Uiso   1.00
C9     C     0.03250   0.71097   1.08575   0.00000  Uiso   1.00
C10    C     1.03625   0.86078   0.84251   0.00000  Uiso   1.00
C11    C     0.22842   0.52571   0.08687   0.00000  Uiso   1.00
C12    C     0.18688   0.63025   0.83851   0.00000  Uiso   1.00
C13    C     0.25811   0.77063   0.98138   0.00000  Uiso   1.00
O14    O     0.12740   0.66685   0.85085   0.00000  Uiso   1.00
O15    O     0.22751   0.60934   0.89826   0.00000  Uiso   1.00
O16    O     0.25250   0.59659   0.11011   0.00000  Uiso   1.00
O17    O     0.17280   0.51127   0.02991   0.00000  Uiso   1.00
O18    O     0.07967   0.64003   0.91761   0.00000  Uiso   1.00
O19    O     0.10099   0.53247   0.96930   0.00000  Uiso   1.00
Pr20   Pr    0.66030   0.83533   0.04054   0.00000  Uiso   1.00
Pr21   Pr    0.60888   0.75002   0.15987   0.00000  Uiso   1.00
O22    O     0.72274   0.69667   0.14461   0.00000  Uiso   1.00
O23    O     0.75990   0.76172   0.05329   0.00000  Uiso   1.00
O24    O     0.70025   0.92821  -0.02215   0.00000  Uiso   1.00
O25    O     0.65027   0.82116   0.90309   0.00000  Uiso   1.00
O26    O     0.58786   0.72654   0.02209   0.00000  Uiso   1.00
O27    O     0.53934   0.82703   0.98332   0.00000  Uiso   1.00
C28    C     0.68048   0.86772   0.27135   0.00000  Uiso   1.00
C29    C     0.77188   0.71609   0.10435   0.00000  Uiso   1.00
C30    C     0.67838   0.88726   0.90500   0.00000  Uiso   1.00
C31    C     0.57968   0.65405   0.25844   0.00000  Uiso   1.00
C32    C     0.51457   0.89760   0.12822   0.00000  Uiso   1.00
C33    C     0.52631   0.76086   0.99017   0.00000  Uiso   1.00
O34    O     0.55863   0.90824   0.07755   0.00000  Uiso   1.00
O35    O     0.51560   0.83796   0.16274   0.00000  Uiso   1.00
O36    O     0.55139   0.64295   0.18269   0.00000  Uiso   1.00
O37    O     0.61627   0.71945   0.28657   0.00000  Uiso   1.00
O38    O     0.68004   0.85916   0.18447   0.00000  Uiso   1.00
O39    O     0.64129   0.82001   0.29114   0.00000  Uiso   1.00
Pr40   Pr    0.91695   0.19025   0.61829   0.00000  Uiso   1.00
Pr41   Pr    0.78902   0.18533   0.69789   0.00000  Uiso   1.00
O42    O     0.84646   0.29802   0.78372   0.00000  Uiso   1.00
O43    O     0.94810   0.29908   0.72533   0.00000  Uiso   1.00
O44    O     0.99794   0.22477   0.53960   0.00000  Uiso   1.00
O45    O     0.03169   0.14999   0.62223   0.00000  Uiso   1.00
O46    O     0.88918   0.12066   0.70699   0.00000  Uiso   1.00
O47    O     0.99793   0.10709   0.67568   0.00000  Uiso   1.00
C48    C     0.72894   0.26827   0.59925   0.00000  Uiso   1.00
C49    C     0.90662   0.33036   0.77797   0.00000  Uiso   1.00
C50    C     0.04934   0.18709   0.57097   0.00000  Uiso   1.00
C51    C     0.72163   0.06363   0.72812   0.00000  Uiso   1.00
C52    C     0.80245   0.05426   0.52242   0.00000  Uiso   1.00
C53    C     0.95361   0.08216   0.71133   0.00000  Uiso   1.00
O54    O     0.86498   0.08497   0.52178   0.00000  Uiso   1.00
O55    O     0.76130   0.07964   0.57948   0.00000  Uiso   1.00
O56    O     0.72323   0.07048   0.65428   0.00000  Uiso   1.00
O57    O     0.74886   0.12209   0.78524   0.00000  Uiso   1.00
O58    O     0.80129   0.24201   0.59309   0.00000  Uiso   1.00
O59    O     0.70148   0.25673   0.65793   0.00000  Uiso   1.00
Pr60   Pr    0.36082   0.42460   0.48535   0.00000  Uiso   1.00
Pr61   Pr    0.39340   0.27462   0.36225   0.00000  Uiso   1.00
O62    O     0.29928   0.22773   0.41474   0.00000  Uiso   1.00
O63    O     0.27790   0.34007   0.50832   0.00000  Uiso   1.00
O64    O     0.29440   0.53163   0.51234   0.00000  Uiso   1.00
O65    O     0.35970   0.49819   0.61589   0.00000  Uiso   1.00
O66    O     0.43482   0.32114   0.49461   0.00000  Uiso   1.00
O67    O     0.48830   0.43352   0.52332   0.00000  Uiso   1.00
C68    C     0.31089   0.34421   0.26177   0.00000  Uiso   1.00
C69    C     0.26744   0.26636   0.47455   0.00000  Uiso   1.00
C70    C     0.30817   0.53959   0.59081   0.00000  Uiso   1.00
C71    C     0.40655   0.14114   0.25063   0.00000  Uiso   1.00
C72    C     0.47992   0.44098   0.36459   0.00000  Uiso   1.00
C73    C     0.49885   0.36348   0.51018   0.00000  Uiso   1.00
O74    O     0.44433   0.47821   0.42215   0.00000  Uiso   1.00
O75    O     0.47466   0.36480   0.33386   0.00000  Uiso   1.00
O76    O     0.44161   0.15535   0.32410   0.00000  Uiso   1.00
O77    O     0.36702   0.19642   0.23332   0.00000  Uiso   1.00
O78    O     0.32987   0.37481   0.34676   0.00000  Uiso   1.00
O79    O     0.32425   0.27462   0.23939   0.00000  Uiso   1.00
N80    N     0.39200   0.77219   0.96737   0.00000  Uiso   1.00
H81    H     0.48031   0.63103   1.03741   0.00000  Uiso   1.00
C82    C     0.45175   0.73081   0.98417   0.00000  Uiso   1.00
C83    C     0.43893   0.66876   1.01793   0.00000  Uiso   1.00
C84    C     0.33375   0.74204   0.99106   0.00000  Uiso   1.00
S85    S     0.35238   0.66345   0.03459   0.00000  Uiso   1.00
N86    N     0.46085   0.01357   0.20422   0.00000  Uiso   1.00
H87    H     0.33000   0.08494   0.08932   0.00000  Uiso   1.00
C88    C     0.41180   0.06719   0.19042   0.00000  Uiso   1.00
C89    C     0.37142   0.04810   0.11224   0.00000  Uiso   1.00
C90    C     0.45716  -0.04636   0.13720   0.00000  Uiso   1.00
S91    S     0.39570  -0.03841   0.05357   0.00000  Uiso   1.00
N92    N     0.62766   0.34239   0.55662   0.00000  Uiso   1.00
H93    H     0.69483   0.19265   0.43303   0.00000  Uiso   1.00
C94    C     0.68091   0.29361   0.53465   0.00000  Uiso   1.00
C95    C     0.66284   0.24291   0.45747   0.00000  Uiso   1.00
C96    C     0.56874   0.32772   0.49792   0.00000  Uiso   1.00
S97    S     0.57728   0.25494   0.41248   0.00000  Uiso   1.00
N98    N     0.69948  -0.01400   0.82644   0.00000  Uiso   1.00
H99    H     0.67161   0.91625   0.62344   0.00000  Uiso   1.00
C100   C     0.69546   0.99260   0.74769   0.00000  Uiso   1.00
C101   C     0.67580   0.92291   0.68949   0.00000  Uiso   1.00
C102   C     0.68205   0.91185   0.82807   0.00000  Uiso   1.00
S103   S     0.66127   0.84675   0.73317   0.00000  Uiso   1.00
N104   N     0.73651   0.97872   0.38516   0.00000  Uiso   1.00
H105   H     0.85587   0.90362   0.51320   0.00000  Uiso   1.00
C106   C     0.78134   0.98200   0.45800   0.00000  Uiso   1.00
C107   C     0.81652   0.91243   0.46108   0.00000  Uiso   1.00
C108   C     0.73961   0.90612   0.33452   0.00000  Uiso   1.00
S109   S     0.79450   0.84003   0.37325   0.00000  Uiso   1.00
N110   N     0.26396   0.58584   0.72595   0.00000  Uiso   1.00
H111   H     0.17543   0.59994   0.54413   0.00000  Uiso   1.00
C112   C     0.25807   0.58159   0.64398   0.00000  Uiso   1.00
C113   C     0.19143   0.60314   0.60917   0.00000  Uiso   1.00
C114   C     0.20091   0.61181   0.75230   0.00000  Uiso   1.00
S115   S     0.13316   0.62993   0.67719   0.00000  Uiso   1.00
N116   N     0.25199   0.43156   0.17535   0.00000  Uiso   1.00
H117   H     0.36436   0.48143   0.06007   0.00000  Uiso   1.00
C118   C     0.27024   0.46588   0.11722   0.00000  Uiso   1.00
C119   C     0.34039   0.45424   0.10129   0.00000  Uiso   1.00
C120   C     0.30948   0.39148   0.20122   0.00000  Uiso   1.00
S121   S     0.38550   0.39502   0.15613   0.00000  Uiso   1.00
N122   N     0.14995   0.21927   0.50004   0.00000  Uiso   1.00
H123   H     0.31094   0.20491   0.61041   0.00000  Uiso   1.00
C124   C     0.22338   0.22305   0.51460   0.00000  Uiso   1.00
C125   C     0.25368   0.20043   0.58592   0.00000  Uiso   1.00
C126   C     0.12557   0.19083   0.56031   0.00000  Uiso   1.00
S127   S     0.19108   0.17073   0.63689   0.00000  Uiso   1.00
N128   N     1.01246   0.97735   0.77864   0.00000  Uiso   1.00
H129   H    -0.15489   0.96948   0.67793   0.00000  Uiso   1.00
C130   C     0.95609   1.00565   0.73526   0.00000  Uiso   1.00
C131   C    -0.10476   0.95642   0.71328   0.00000  Uiso   1.00
C132   C     0.99240   0.90605   0.78971   0.00000  Uiso   1.00
S133   S    -0.09469   0.87256   0.74682   0.00000  Uiso   1.00
N134   N    -0.01737   0.45423   0.83135   0.00000  Uiso   1.00
H135   H     0.93712   0.56184   1.00374   0.00000  Uiso   1.00
C136   C     0.98784   0.52104   0.89165   0.00000  Uiso   1.00
C137   C     0.93557   0.52160   0.94321   0.00000  Uiso   1.00
C138   C     0.92596   0.40727   0.83510   0.00000  Uiso   1.00
S139   S     0.87648   0.44034   0.91269   0.00000  Uiso   1.00
N140   N     0.90157   0.71932   0.08948   0.00000  Uiso   1.00
H141   H     0.83829   0.62243   1.21160   0.00000  Uiso   1.00
C142   C     0.84751   0.69010   1.11997   0.00000  Uiso   1.00
C143   C     0.87285   0.64721   1.17726   0.00000  Uiso   1.00
C144   C     0.96689   0.69769   1.12115   0.00000  Uiso   1.00
S145   S     0.96562   0.64042   1.19082   0.00000  Uiso   1.00
N146   N     0.51947   0.54342   0.29879   0.00000  Uiso   1.00
H147   H     0.68976   0.60560   0.36868   0.00000  Uiso   1.00
C148   C     0.57735   0.59245   0.30583   0.00000  Uiso   1.00
C149   C     0.63718   0.57414   0.35595   0.00000  Uiso   1.00
C150   C     0.53579   0.48834   0.34286   0.00000  Uiso   1.00
S151   S     0.62205   0.49494   0.39552   0.00000  Uiso   1.00
loop_
_geom_bond_atom_site_label_1
_geom_bond_atom_site_label_2
_geom_bond_distance
_geom_bond_site_symmetry_2
_ccdc_geom_bond_type
Pr0    O3      2.299   .     S
Pr0    O5      2.357   .     S
Pr0    O6      2.262   .     S
Pr0    O7      2.349   .     S
Pr0    O14     2.332   .     S
Pr0    O18     2.399   .     S
Pr0    O4      2.296   1_455 S
Pr1    O6      2.227   .     S
Pr1    O15     2.312   .     S
Pr1    O18     2.232   .     S
Pr1    O19     2.215   .     S
Pr1    O2      2.299   1_556 S
Pr1    O16     2.236   1_556 S
Pr1    O17     2.286   1_556 S
O2     Pr1     2.299   1_554 S
O2     C9      1.293   1_554 A
O3     C9      1.289   .     A
O4     C10     1.268   .     A
O4     Pr0     2.296   1_655 S
O5     C10     1.267   1_455 A
O6     C13     1.385   .     S
O7     C13     1.222   .     D
C8     O18     1.439   .     S
C8     O19     1.221   .     D
C8     C136    1.467   1_455 S
C9     O2      1.293   1_556 A
C9     C144    1.477   1_455 S
C10    C132    1.478   .     S
C10    O5      1.267   1_655 A
C11    O16     1.270   .     A
C11    O17     1.283   .     A
C11    C118    1.443   .     S
C12    O14     1.297   .     A
C12    O15     1.287   .     A
C12    C114    1.473   .     S
C13    C84     1.492   .     S
O16    Pr1     2.236   1_554 S
O17    Pr1     2.286   1_554 S
Pr20   O23     2.267   .     S
Pr20   O24     2.307   .     S
Pr20   O26     2.266   .     S
Pr20   O34     2.360   .     S
Pr20   O38     2.331   .     S
Pr20   O25     2.246   1_554 S
Pr20   O27     2.303   1_554 S
Pr21   O22     2.339   .     S
Pr21   O26     2.231   .     S
Pr21   O35     2.315   .     S
Pr21   O36     2.291   .     S
Pr21   O37     2.297   .     S
Pr21   O38     2.245   .     S
Pr21   O39     2.256   .     S
O22    C29     1.304   .     A
O23    C29     1.296   .     A
O24    C30     1.275   1_554 A
O25    C30     1.260   .     A
O25    Pr20    2.246   1_556 S
O26    C33     1.386   1_554 S
O27    C33     1.216   .     D
O27    Pr20    2.303   1_556 S
C28    O38     1.432   .     S
C28    O39     1.241   .     D
C28    C108    1.454   .     S
C29    C142    1.483   1_554 S
C30    C102    1.464   .     S
C30    O24     1.275   1_556 A
C31    O36     1.274   .     A
C31    O37     1.284   .     A
C31    C148    1.483   .     S
C32    O34     1.310   .     A
C32    O35     1.303   .     A
C32    C90     1.449   1_565 S
C33    C82     1.465   .     S
C33    O26     1.386   1_556 S
Pr40   O43     2.303   .     S
Pr40   O44     2.313   .     S
Pr40   O46     2.244   .     S
Pr40   O47     2.349   .     S
Pr40   O54     2.261   .     S
Pr40   O58     2.351   .     S
Pr40   O45     2.244   1_655 S
Pr41   O42     2.310   .     S
Pr41   O46     2.182   .     S
Pr41   O55     2.375   .     S
Pr41   O56     2.264   .     S
Pr41   O57     2.239   .     S
Pr41   O58     2.250   .     S
Pr41   O59     2.171   .     S
O42    C49     1.281   .     A
O43    C49     1.288   .     A
O44    C50     1.278   1_655 A
O45    C50     1.270   .     A
O45    Pr40    2.244   1_455 S
O46    C53     1.375   .     S
O47    C53     1.224   .     D
C48    O58     1.433   .     S
C48    O59     1.232   .     D
C48    C94     1.451   .     S
C49    C138    1.470   .     S
C50    C126    1.460   .     S
C50    O44     1.278   1_455 A
C51    O56     1.279   .     A
C51    O57     1.275   .     A
C51    C100    1.457   1_545 S
C52    O54     1.285   .     A
C52    O55     1.314   .     A
C52    C106    1.472   1_545 S
C53    C130    1.481   1_545 S
Pr60   O63     2.271   .     S
Pr60   O64     2.236   .     S
Pr60   O65     2.277   .     S
Pr60   O66     2.291   .     S
Pr60   O67     2.359   .     S
Pr60   O74     2.319   .     S
Pr60   O78     2.277   .     S
Pr61   O62     2.306   .     S
Pr61   O66     2.205   .     S
Pr61   O75     2.359   .     S
Pr61   O76     2.261   .     S
Pr61   O77     2.264   .     S
Pr61   O78     2.154   .     S
Pr61   O79     2.264   .     S
O62    C69     1.297   .     A
O63    C69     1.284   .     A
O64    C70     1.281   .     A
O65    C70     1.280   .     A
O66    C73     1.362   .     S
O67    C73     1.213   .     D
C68    O78     1.397   .     S
C68    O79     1.224   .     D
C68    C120    1.448   .     S
C69    C124    1.449   .     S
C70    C112    1.467   .     S
C71    O76     1.277   .     A
C71    O77     1.274   .     A
C71    C88     1.460   .     S
C72    O74     1.303   .     A
C72    O75     1.310   .     A
C72    C150    1.468   .     S
C73    C96     1.464   .     S
N80    C82     1.355   .     A
N80    C84     1.356   .     A
H81    C83     1.076   .     S
C82    C83     1.371   .     A
C83    S85     1.682   1_556 S
C84    S85     1.711   1_556 D
S85    C83     1.682   1_554 S
S85    C84     1.711   1_554 D
N86    C88     1.341   .     A
N86    C90     1.343   .     A
H87    C89     1.087   .     S
C88    C89     1.381   .     A
C89    S91     1.705   .     A
C90    S91     1.707   .     A
C90    C32     1.449   1_545 S
N92    C94     1.344   .     A
N92    C96     1.343   .     A
H93    C95     1.095   .     S
C94    C95     1.386   .     A
C95    S97     1.692   .     A
C96    S97     1.712   .     A
N98    C100    1.346   1_545 S
N98    C102    1.343   1_545 D
H99    C101    1.080   .     S
C100   C101    1.385   .     A
C100   N98     1.346   1_565 S
C100   C51     1.457   1_565 S
C101   S103    1.701   .     A
C102   S103    1.723   .     A
C102   N98     1.343   1_565 D
N104   C106    1.364   .     A
N104   C108    1.362   .     A
H105   C107    1.094   .     S
C106   C107    1.388   .     A
C106   C52     1.472   1_565 S
C107   S109    1.706   .     A
C108   S109    1.716   .     A
N110   C112    1.351   .     A
N110   C114    1.357   .     A
H111   C113    1.078   .     S
C112   C113    1.380   .     A
C113   S115    1.681   .     A
C114   S115    1.730   .     A
N116   C118    1.341   .     A
N116   C120    1.350   .     A
H117   C119    1.072   .     S
C118   C119    1.377   .     A
C119   S121    1.682   .     A
C120   S121    1.710   .     A
N122   C124    1.351   .     A
N122   C126    1.360   .     A
H123   C125    1.079   .     S
C124   C125    1.388   .     A
C125   S127    1.693   .     A
C126   S127    1.733   .     A
N128   C130    1.346   .     A
N128   C132    1.362   .     A
H129   C131    1.082   .     S
C130   C131    1.375   1_655 A
C130   C53     1.481   1_565 S
C131   S133    1.688   .     A
C131   C130    1.375   1_455 A
C132   S133    1.717   1_655 A
S133   C132    1.717   1_455 A
N134   C136    1.351   1_455 A
N134   C138    1.355   1_455 A
H135   C137    1.092   .     S
C136   C137    1.395   .     A
C136   N134    1.351   1_655 A
C136   C8      1.467   1_655 S
C137   S139    1.729   .     A
C138   S139    1.701   .     A
C138   N134    1.355   1_655 A
N140   C142    1.346   1_554 A
N140   C144    1.342   1_554 A
H141   C143    1.078   .     S
C142   C143    1.381   .     A
C142   N140    1.346   1_556 A
C142   C29     1.483   1_556 S
C143   S145    1.715   .     A
C144   S145    1.709   .     A
C144   N140    1.342   1_556 A
C144   C9      1.477   1_655 S
N146   C148    1.351   .     A
N146   C150    1.352   .     A
H147   C149    1.091   .     S
C148   C149    1.377   .     A
C149   S151    1.708   .     A
C150   S151    1.704   .     A
