data_lcy+N248+E35
_audit_creation_date              2025-01-21
_audit_creation_method            'Materials Studio'
_symmetry_space_group_name_H-M    'P1'
_symmetry_Int_Tables_number       1
_symmetry_cell_setting            triclinic
loop_
_symmetry_equiv_pos_as_xyz
  x,y,z
_cell_length_a                    25.1400
_cell_length_b                    26.6821
_cell_length_c                    24.2192
_cell_angle_alpha                 89.8786
_cell_angle_beta                  87.2687
_cell_angle_gamma                 88.9736
loop_
_atom_site_label
_atom_site_type_symbol
_atom_site_fract_x
_atom_site_fract_y
_atom_site_fract_z
_atom_site_U_iso_or_equiv
_atom_site_adp_type
_atom_site_occupancy
O0     O     0.14617   0.68871   0.93730   0.00000  Uiso   1.00
Yb1    Yb    0.16567   0.60560   0.83481   0.00000  Uiso   1.00
C2     C     0.23144   0.57765   0.75865   0.00000  Uiso   1.00
Yb3    Yb    0.08370   0.63882   0.91198   0.00000  Uiso   1.00
O4     O     0.21197   0.65948   0.87466   0.00000  Uiso   1.00
C5     C     0.06815   0.70162   0.83383   0.00000  Uiso   1.00
C6     C     0.19498   0.68775   0.91570   0.00000  Uiso   1.00
O7     O     0.01867   0.68935   0.93019   0.00000  Uiso   1.00
C8     C     0.00877   0.66957   0.97770   0.00000  Uiso   1.00
O9     O     0.20972   0.54372   0.87274   0.00000  Uiso   1.00
O10    O     0.14289   0.58293   0.91588   0.00000  Uiso   1.00
O11    O     0.10594   0.55534   0.81107   0.00000  Uiso   1.00
O12    O     1.03995   0.63333   0.99037   0.00000  Uiso   1.00
O13    O     0.03833   0.58048   0.87271   0.00000  Uiso   1.00
C14    C     0.18249   0.54658   0.91629   0.00000  Uiso   1.00
C15    C     0.05965   0.54941   0.83600   0.00000  Uiso   1.00
O16    O     0.23056   0.55622   0.80626   0.00000  Uiso   1.00
O17    O     0.20034   0.61533   0.75526   0.00000  Uiso   1.00
O18    O     0.03905   0.69897   0.87590   0.00000  Uiso   1.00
O19    O     0.10840   0.66492   0.83048   0.00000  Uiso   1.00
O20    O     0.68345   0.96330   0.10976   0.00000  Uiso   1.00
Yb21   Yb    0.58198   0.88298   0.09988   0.00000  Uiso   1.00
C22    C     0.51646   0.85404   1.03237   0.00000  Uiso   1.00
Yb23   Yb    0.65495   0.91545   0.17864   0.00000  Uiso   1.00
O24    O     0.62382   0.93460   0.04798   0.00000  Uiso   1.00
C25    C     0.58072   0.98066   0.19845   0.00000  Uiso   1.00
C26    C     0.66326   0.96263   0.06074   0.00000  Uiso   1.00
O27    O     0.67264   0.96517   0.24368   0.00000  Uiso   1.00
C28    C     0.71692   0.94255   0.25220   0.00000  Uiso   1.00
O29    O     0.62120   0.81783   0.05620   0.00000  Uiso   1.00
O30    O     0.65804   0.85868   0.12146   0.00000  Uiso   1.00
O31    O     0.55397   0.83584   0.16644   0.00000  Uiso   1.00
O32    O     0.72920   0.90653   0.21899   0.00000  Uiso   1.00
O33    O     0.61331   0.86002   0.23069   0.00000  Uiso   1.00
C34    C     0.66087   0.82063   0.08357   0.00000  Uiso   1.00
C35    C     0.57506   0.83186   0.21429   0.00000  Uiso   1.00
O36    O     0.56207   0.83181   0.03587   0.00000  Uiso   1.00
O37    O     0.50844   0.89221   1.06336   0.00000  Uiso   1.00
O38    O     0.62138   0.97746   0.22454   0.00000  Uiso   1.00
O39    O     0.57706   0.94373   0.15793   0.00000  Uiso   1.00
O40    O     0.96664   0.17985   0.70018   0.00000  Uiso   1.00
Yb41   Yb    0.85122   0.16999   0.63161   0.00000  Uiso   1.00
C42    C     0.77518   0.21954   0.59241   0.00000  Uiso   1.00
Yb43   Yb    0.93946   0.10713   0.67127   0.00000  Uiso   1.00
O44    O     0.89542   0.22754   0.67007   0.00000  Uiso   1.00
C45    C     0.84812   0.08756   0.72136   0.00000  Uiso   1.00
C46    C     0.93928   0.22206   0.69648   0.00000  Uiso   1.00
O47    O     0.97082   0.06533   0.73697   0.00000  Uiso   1.00
C48    C     1.00560   0.04366   0.70465   0.00000  Uiso   1.00
O49    O     0.88279   0.20029   0.55182   0.00000  Uiso   1.00
O50    O     0.92064   0.14069   0.59644   0.00000  Uiso   1.00
O51    O     0.82498   0.10077   0.59790   0.00000  Uiso   1.00
O52    O     1.00989   0.06200   0.65574   0.00000  Uiso   1.00
O53    O     0.89474   0.05033   0.62529   0.00000  Uiso   1.00
C54    C     0.92394   0.17498   0.55394   0.00000  Uiso   1.00
C55    C     0.85188   0.05860   0.59712   0.00000  Uiso   1.00
O56    O     0.81918   0.21157   0.56446   0.00000  Uiso   1.00
O57    O     0.77502   0.20516   0.64271   0.00000  Uiso   1.00
O58    O     0.87726   0.05553   0.69981   0.00000  Uiso   1.00
O59    O     0.86523   0.13512   0.70963   0.00000  Uiso   1.00
O60    O     0.40714   0.29944   0.38927   0.00000  Uiso   1.00
Yb61   Yb    0.40804   0.41001   0.31214   0.00000  Uiso   1.00
C62    C     0.46042   0.48867   0.29650   0.00000  Uiso   1.00
Yb63   Yb    0.33763   0.32514   0.34257   0.00000  Uiso   1.00
O64    O     0.46159   0.36641   0.36466   0.00000  Uiso   1.00
C65    C     0.32124   0.39016   0.41873   0.00000  Uiso   1.00
C66    C     0.45167   0.32458   0.39219   0.00000  Uiso   1.00
O67    O     0.27993   0.30022   0.40364   0.00000  Uiso   1.00
C68    C     0.26662   0.26328   0.37402   0.00000  Uiso   1.00
O69    O     0.46945   0.35235   0.29084   0.00000  Uiso   1.00
O70    O     0.38856   0.34027   0.27058   0.00000  Uiso   1.00
O71    O     0.33712   0.43779   0.27552   0.00000  Uiso   1.00
O72    O     0.29420   0.25764   0.32859   0.00000  Uiso   1.00
O73    O     0.28357   0.37011   0.29421   0.00000  Uiso   1.00
C74    C     0.43993   0.32248   0.27023   0.00000  Uiso   1.00
C75    C     0.29389   0.41260   0.26961   0.00000  Uiso   1.00
O76    O     0.45786   0.45522   0.25877   0.00000  Uiso   1.00
O77    O     0.43767   0.47780   0.34301   0.00000  Uiso   1.00
O78    O     0.29195   0.35423   0.41526   0.00000  Uiso   1.00
O79    O     0.36468   0.38643   0.38228   0.00000  Uiso   1.00
C80    C     0.38130   0.79152   0.96409   0.00000  Uiso   1.00
C81    C     0.43028   0.76536   0.95809   0.00000  Uiso   1.00
C82    C     0.47633   0.78732   0.97613   0.00000  Uiso   1.00
C83    C     0.47335   0.83526   0.99946   0.00000  Uiso   1.00
C84    C     0.42470   0.86206   0.99911   0.00000  Uiso   1.00
N85    N     0.38020   0.83955   0.98250   0.00000  Uiso   1.00
C86    C     0.33068   0.76617   0.95666   0.00000  Uiso   1.00
N87    N     0.28942   0.79099   0.93347   0.00000  Uiso   1.00
C88    C     0.24257   0.76810   0.92459   0.00000  Uiso   1.00
C89    C     0.23590   0.71783   0.93967   0.00000  Uiso   1.00
C90    C     0.27680   0.69261   0.96609   0.00000  Uiso   1.00
C91    C     0.32407   0.71676   0.97503   0.00000  Uiso   1.00
H92    H     0.51323   0.76568   0.97495   0.00000  Uiso   1.00
H93    H     0.42111   0.89957   1.01592   0.00000  Uiso   1.00
H94    H     0.21200   0.78796   0.90280   0.00000  Uiso   1.00
H95    H     0.27317   0.65341   0.97728   0.00000  Uiso   1.00
H96    H     0.43244   0.72753   0.94189   0.00000  Uiso   1.00
H97    H     0.35553   0.69682   0.99535   0.00000  Uiso   1.00
C98    C     0.48179   0.17147   0.22809   0.00000  Uiso   1.00
C99    C     0.43371   0.19188   0.21062   0.00000  Uiso   1.00
C100   C     0.42055   0.24191   0.22316   0.00000  Uiso   1.00
C101   C     0.45588   0.27161   0.25160   0.00000  Uiso   1.00
C102   C     0.50441   0.25021   0.26622   0.00000  Uiso   1.00
N103   N     0.51557   0.20118   0.25502   0.00000  Uiso   1.00
C104   C     0.49623   0.11808   0.22105   0.00000  Uiso   1.00
N105   N     0.51881   0.09405   0.26380   0.00000  Uiso   1.00
C106   C     0.54066   0.04741   0.25872   0.00000  Uiso   1.00
C107   C     0.54308   0.02314   0.20741   0.00000  Uiso   1.00
C108   C     0.51731   0.04572   0.16334   0.00000  Uiso   1.00
C109   C     0.49326   0.09329   0.17023   0.00000  Uiso   1.00
H110   H     0.38231   0.25703   0.21171   0.00000  Uiso   1.00
H111   H     0.53253   0.27181   0.28837   0.00000  Uiso   1.00
H112   H     0.55907   1.03067   0.29399   0.00000  Uiso   1.00
H113   H     0.51930   0.02843   0.12282   0.00000  Uiso   1.00
H114   H     0.40573   0.16898   0.18985   0.00000  Uiso   1.00
H115   H     0.47620   0.11189   0.13530   0.00000  Uiso   1.00
C116   C     0.63181   0.26435   0.51663   0.00000  Uiso   1.00
C117   C     0.63086   0.25554   0.57382   0.00000  Uiso   1.00
C118   C     0.67825   0.24310   0.59899   0.00000  Uiso   1.00
C119   C     0.72657   0.23955   0.56754   0.00000  Uiso   1.00
C120   C     0.72605   0.24996   0.51084   0.00000  Uiso   1.00
N121   N     0.67945   0.26196   0.48729   0.00000  Uiso   1.00
C122   C     0.58326   0.27753   0.48677   0.00000  Uiso   1.00
N123   N     0.58994   0.30119   0.43730   0.00000  Uiso   1.00
C124   C     0.54850   0.31507   0.40655   0.00000  Uiso   1.00
C125   C     0.49592   0.30491   0.42472   0.00000  Uiso   1.00
C126   C     0.48759   0.27959   0.47512   0.00000  Uiso   1.00
C127   C     0.53120   0.26592   0.50645   0.00000  Uiso   1.00
H128   H     0.67687   0.23515   0.64288   0.00000  Uiso   1.00
H129   H     0.76225   0.24725   0.48487   0.00000  Uiso   1.00
H130   H     0.55690   0.33436   0.36784   0.00000  Uiso   1.00
H131   H     0.44760   0.27169   0.49091   0.00000  Uiso   1.00
H132   H     0.59430   0.25836   0.59904   0.00000  Uiso   1.00
H133   H     0.52400   0.24635   0.54515   0.00000  Uiso   1.00
C134   C     0.75791   0.05289   0.86717   0.00000  Uiso   1.00
C135   C     0.76827   0.10308   0.85479   0.00000  Uiso   1.00
C136   C     0.79310   0.11496   0.80378   0.00000  Uiso   1.00
C137   C     0.80861   0.07679   0.76621   0.00000  Uiso   1.00
C138   C     0.79521   0.02737   0.77934   0.00000  Uiso   1.00
N139   N     0.77041   0.01683   0.82888   0.00000  Uiso   1.00
C140   C     0.73161   0.03771   0.91952   0.00000  Uiso   1.00
N141   N     0.68677   0.01069   0.91723   0.00000  Uiso   1.00
C142   C     0.66302  -0.01009   0.96271   0.00000  Uiso   1.00
C143   C     0.68595   0.99331   0.01450   0.00000  Uiso   1.00
C144   C     0.73169   1.02243   1.01828   0.00000  Uiso   1.00
C145   C     0.75440   0.04525   0.97060   0.00000  Uiso   1.00
H146   H     0.80309   0.15363   0.79527   0.00000  Uiso   1.00
H147   H     0.80657  -0.00312   0.75156   0.00000  Uiso   1.00
H148   H     0.62716   0.96900   0.95740   0.00000  Uiso   1.00
H149   H     0.75079   1.02618   0.05717   0.00000  Uiso   1.00
H150   H     0.75773   0.13256   0.88415   0.00000  Uiso   1.00
H151   H     0.79081   0.06614   0.97291   0.00000  Uiso   1.00
C152   C     0.80214  -0.01943   0.46045   0.00000  Uiso   1.00
C153   C     0.76359  -0.00220   0.49990   0.00000  Uiso   1.00
C154   C     0.77957   0.01761   0.54934   0.00000  Uiso   1.00
C155   C     0.83387   0.02012   0.55935   0.00000  Uiso   1.00
C156   C     0.87077  -0.00298   0.52176   0.00000  Uiso   1.00
N157   N     0.85435  -0.02098   0.47293   0.00000  Uiso   1.00
C158   C     0.78701  -0.02706   0.40331   0.00000  Uiso   1.00
N159   N     0.79833   0.92895   0.37654   0.00000  Uiso   1.00
C160   C     0.78016   0.91974   0.32547   0.00000  Uiso   1.00
C161   C     0.74801   0.95559   0.29976   0.00000  Uiso   1.00
C162   C     0.73899   1.00213   0.32539   0.00000  Uiso   1.00
C163   C     0.75858   0.01097   0.37701   0.00000  Uiso   1.00
H164   H     0.74992   0.03491   0.57749   0.00000  Uiso   1.00
H165   H     0.91303  -0.00143   0.52818   0.00000  Uiso   1.00
H166   H     0.78806   0.88347   0.30661   0.00000  Uiso   1.00
H167   H     0.71514   1.03104   0.30648   0.00000  Uiso   1.00
H168   H     0.72190  -0.00055   0.49055   0.00000  Uiso   1.00
H169   H     0.75045   0.04673   0.39713   0.00000  Uiso   1.00
C170   C     0.30455   0.48623   0.55751   0.00000  Uiso   1.00
C171   C     0.35534   0.46860   0.54015   0.00000  Uiso   1.00
C172   C     0.36114   0.43894   0.49281   0.00000  Uiso   1.00
C173   C     0.31628   0.42655   0.46380   0.00000  Uiso   1.00
C174   C     0.26639   0.44580   0.48185   0.00000  Uiso   1.00
N175   N     0.26179   0.47502   0.52770   0.00000  Uiso   1.00
C176   C     0.29553   0.51385   0.60935   0.00000  Uiso   1.00
N177   N     0.26484   0.55617   0.60958   0.00000  Uiso   1.00
C178   C     0.24871   0.57960   0.65720   0.00000  Uiso   1.00
C179   C     0.26064   0.55860   0.70860   0.00000  Uiso   1.00
C180   C     0.29373   0.51583   0.70929   0.00000  Uiso   1.00
C181   C     0.31202   0.49377   0.65942   0.00000  Uiso   1.00
H182   H     0.40012   0.42371   0.48047   0.00000  Uiso   1.00
H183   H     0.23108   0.43704   0.46014   0.00000  Uiso   1.00
H184   H     0.22362   0.61287   0.65465   0.00000  Uiso   1.00
H185   H     0.30350   0.49832   0.74793   0.00000  Uiso   1.00
H186   H     0.38979   0.47718   0.56337   0.00000  Uiso   1.00
H187   H     0.33584   0.45962   0.65985   0.00000  Uiso   1.00
C188   C     0.20389   0.47200   0.06956   0.00000  Uiso   1.00
C189   C     0.23369   0.45451   0.02264   0.00000  Uiso   1.00
C190   C     0.22676   0.47749   0.97117   0.00000  Uiso   1.00
C191   C     0.18970   0.51709   0.96709   0.00000  Uiso   1.00
C192   C     0.15886   0.53116   0.01474   0.00000  Uiso   1.00
N193   N     0.16751   0.50952   0.06419   0.00000  Uiso   1.00
C194   C     0.21813   0.45757   0.12548   0.00000  Uiso   1.00
N195   N     0.24486   0.49104   0.15543   0.00000  Uiso   1.00
C196   C     0.26419   0.47928   0.20526   0.00000  Uiso   1.00
C197   C     0.25792   0.43090   0.22712   0.00000  Uiso   1.00
C198   C     0.22608   0.39731   0.19922   0.00000  Uiso   1.00
C199   C     0.20642   0.41045   0.14794   0.00000  Uiso   1.00
H200   H     0.25082   0.46531   0.93528   0.00000  Uiso   1.00
H201   H     0.12941   0.56114   0.01349   0.00000  Uiso   1.00
H202   H     0.28752   0.50668   0.22587   0.00000  Uiso   1.00
H203   H     0.21937   0.35988   0.21508   0.00000  Uiso   1.00
H204   H     0.26353   0.42515   0.02640   0.00000  Uiso   1.00
H205   H     0.18376   0.38382   0.12545   0.00000  Uiso   1.00
C206   C     0.12064   0.19939   0.42965   0.00000  Uiso   1.00
C207   C     0.16221   0.20292   0.46593   0.00000  Uiso   1.00
C208   C     0.21147   0.22055   0.44658   0.00000  Uiso   1.00
C209   C     0.22009   0.23308   0.39081   0.00000  Uiso   1.00
C210   C     0.17861   0.22599   0.35485   0.00000  Uiso   1.00
N211   N     0.12993   0.21069   0.37515   0.00000  Uiso   1.00
C212   C     0.06649   0.18799   0.45222   0.00000  Uiso   1.00
N213   N     0.02617   0.22261   0.44864   0.00000  Uiso   1.00
C214   C     0.97878   0.21819   0.47813   0.00000  Uiso   1.00
C215   C     0.97087   0.17788   0.51484   0.00000  Uiso   1.00
C216   C     0.01103   0.14091   0.51696   0.00000  Uiso   1.00
C217   C     0.05865   0.14574   0.48573   0.00000  Uiso   1.00
H218   H     0.24216   0.22656   0.47566   0.00000  Uiso   1.00
H219   H     0.18366   0.23626   0.31167   0.00000  Uiso   1.00
H220   H     0.94868   0.24748   0.47524   0.00000  Uiso   1.00
H221   H     0.00633   0.10898   0.54425   0.00000  Uiso   1.00
H222   H     0.15561   0.19505   0.50955   0.00000  Uiso   1.00
H223   H     0.09003   0.11779   0.48938   0.00000  Uiso   1.00
C224   C     0.05492   0.89568   0.74343   0.00000  Uiso   1.00
C225   C     1.03215   0.92655   0.78517   0.00000  Uiso   1.00
C226   C     1.02073   0.97661   0.77380   0.00000  Uiso   1.00
C227   C     1.03199   0.99620   0.72082   0.00000  Uiso   1.00
C228   C     0.05827   0.96486   0.68116   0.00000  Uiso   1.00
N229   N     0.06833   0.91566   0.69302   0.00000  Uiso   1.00
C230   C     0.05800   0.84119   0.75298   0.00000  Uiso   1.00
N231   N     0.10598   0.81707   0.75626   0.00000  Uiso   1.00
C232   C     0.10985   0.76924   0.77594   0.00000  Uiso   1.00
C233   C     0.06397   0.74448   0.79591   0.00000  Uiso   1.00
C234   C     0.01427   0.76767   0.78957   0.00000  Uiso   1.00
C235   C     1.01114   0.81577   0.76757   0.00000  Uiso   1.00
H236   H     0.99969   0.99896   0.80544   0.00000  Uiso   1.00
H237   H     0.06724   0.97835   0.63964   0.00000  Uiso   1.00
H238   H     0.14891   0.75253   0.78084   0.00000  Uiso   1.00
H239   H     0.97810   0.74980   0.80475   0.00000  Uiso   1.00
H240   H     1.02091   0.91133   0.82549   0.00000  Uiso   1.00
H241   H     0.97267   0.83437   0.76522   0.00000  Uiso   1.00
C242   C     0.99756   0.40654   0.79739   0.00000  Uiso   1.00
C243   C     0.96163   0.44769   0.80384   0.00000  Uiso   1.00
C244   C     0.98040   0.49482   0.81859   0.00000  Uiso   1.00
C245   C     0.03486   0.50085   0.82555   0.00000  Uiso   1.00
C246   C     0.06866   0.45841   0.82125   0.00000  Uiso   1.00
N247   N     0.04967   0.41332   0.80696   0.00000  Uiso   1.00
C248   C     0.98196   0.35707   0.77617   0.00000  Uiso   1.00
N249   N     1.02032   0.32581   0.75270   0.00000  Uiso   1.00
C250   C     1.00873   0.28137   0.72873   0.00000  Uiso   1.00
C251   C     0.95563   0.26688   0.72650   0.00000  Uiso   1.00
C252   C     0.91594   0.29744   0.75244   0.00000  Uiso   1.00
C253   C     0.92879   0.34214   0.77760   0.00000  Uiso   1.00
H254   H     0.95296   0.52650   0.82218   0.00000  Uiso   1.00
H255   H     0.11067   0.46127   0.82849   0.00000  Uiso   1.00
H256   H     1.04061   0.25866   0.70965   0.00000  Uiso   1.00
H257   H     0.87460   0.28664   0.75313   0.00000  Uiso   1.00
H258   H     0.92006   0.44439   0.79529   0.00000  Uiso   1.00
H259   H     0.89719   0.36443   0.79762   0.00000  Uiso   1.00
C260   C     0.80861   0.74020   0.06426   0.00000  Uiso   1.00
C261   C     0.79893   0.77229   0.10914   0.00000  Uiso   1.00
C262   C     0.74953   0.79601   0.11629   0.00000  Uiso   1.00
C263   C     0.70956   0.78836   0.07869   0.00000  Uiso   1.00
C264   C     0.71998   0.75380   0.03556   0.00000  Uiso   1.00
N265   N     0.76901   0.73108   0.02922   0.00000  Uiso   1.00
C266   C     0.86309   0.72212   0.05058   0.00000  Uiso   1.00
N267   N     0.87442   0.67209   0.04835   0.00000  Uiso   1.00
C268   C     0.92352   0.65409   1.03131   0.00000  Uiso   1.00
C269   C     0.96294   0.68731   0.01235   0.00000  Uiso   1.00
C270   C     0.95256   0.73892   0.01625   0.00000  Uiso   1.00
C271   C     0.90289   0.75650   0.03622   0.00000  Uiso   1.00
H272   H     0.74315   0.82204   0.15018   0.00000  Uiso   1.00
H273   H     0.69017   0.74661   0.00574   0.00000  Uiso   1.00
H274   H     0.93040   0.61397   1.02859   0.00000  Uiso   1.00
H275   H    -0.01788   0.76547   0.00136   0.00000  Uiso   1.00
H276   H     0.83004   0.78039   0.13705   0.00000  Uiso   1.00
H277   H     0.89462   0.79644   0.03755   0.00000  Uiso   1.00
C278   C     0.52606   0.69218   0.27572   0.00000  Uiso   1.00
C279   C     0.48726   0.72953   0.26777   0.00000  Uiso   1.00
C280   C     0.50304   0.77787   0.25351   0.00000  Uiso   1.00
C281   C     0.55730   0.78910   0.24840   0.00000  Uiso   1.00
C282   C     0.59461   0.75198   0.26227   0.00000  Uiso   1.00
N283   N     0.57837   0.70463   0.27437   0.00000  Uiso   1.00
C284   C     0.51115   0.63905   0.27932   0.00000  Uiso   1.00
N285   N     0.53133   0.60869   0.31874   0.00000  Uiso   1.00
C286   C     0.51764   0.55963   0.32370   0.00000  Uiso   1.00
C287   C     0.48311   0.53849   0.28661   0.00000  Uiso   1.00
C288   C     0.46361   0.56866   0.24455   0.00000  Uiso   1.00
C289   C     0.47698   0.61909   0.24119   0.00000  Uiso   1.00
H290   H     0.47314   0.80558   0.24309   0.00000  Uiso   1.00
H291   H     0.63686   0.75920   0.25796   0.00000  Uiso   1.00
H292   H     0.53328   0.53741   0.35688   0.00000  Uiso   1.00
H293   H     0.43606   0.55381   0.21590   0.00000  Uiso   1.00
H294   H     0.44533   0.72072   0.26998   0.00000  Uiso   1.00
H295   H     0.46072   0.64234   0.20915   0.00000  Uiso   1.00
loop_
_geom_bond_atom_site_label_1
_geom_bond_atom_site_label_2
_geom_bond_distance
_geom_bond_site_symmetry_2
_ccdc_geom_bond_type
O0     C6      1.311   .     A
O0     Yb3     2.188   .     S
Yb1    Yb3     2.846   .     S
Yb1    O4      2.128   .     S
Yb1    O9      2.196   .     S
Yb1    O10     2.109   .     S
Yb1    O11     2.131   .     S
Yb1    O16     2.167   .     S
Yb1    O17     2.094   .     S
Yb1    O19     2.126   .     S
C2     O16     1.285   .     A
C2     O17     1.268   .     A
C2     C179    1.473   .     S
Yb3    O7      2.131   .     S
Yb3    O10     2.093   .     S
Yb3    O13     2.191   .     S
Yb3    O18     2.150   .     S
Yb3    O19     2.159   .     S
Yb3    O12     2.154   1_455 S
O4     C6      1.300   .     A
C5     O18     1.228   .     D
C5     O19     1.395   .     S
C5     C233    1.471   .     S
C6     C89     1.459   .     S
O7     C8      1.280   .     A
C8     O12     1.280   1_455 A
C8     C269    1.465   1_456 S
O9     C14     1.232   .     D
O10    C14     1.378   .     S
O11    C15     1.297   .     A
O12    Yb3     2.154   1_655 S
O12    C8      1.280   1_655 A
O13    C15     1.307   .     A
C14    C191    1.476   .     S
C15    C245    1.475   .     S
O20    C26     1.313   .     A
O20    Yb23    2.199   .     S
Yb21   Yb23    2.855   .     S
Yb21   O24     2.122   .     S
Yb21   O29     2.227   .     S
Yb21   O30     2.098   .     S
Yb21   O31     2.143   .     S
Yb21   O36     2.151   .     S
Yb21   O39     2.146   .     S
Yb21   O37     2.097   1_554 S
C22    O37     1.274   .     A
C22    C83     1.471   .     S
C22    O36     1.288   1_556 A
Yb23   O27     2.130   .     S
Yb23   O30     2.052   .     S
Yb23   O32     2.157   .     S
Yb23   O33     2.190   .     S
Yb23   O38     2.134   .     S
Yb23   O39     2.167   .     S
O24    C26     1.302   .     A
C25    O38     1.229   .     D
C25    O39     1.400   .     S
C25    C107    1.473   1_565 S
C26    C143    1.484   .     S
O27    C28     1.282   .     A
C28    O32     1.279   .     A
C28    C161    1.468   .     S
O29    C34     1.227   .     D
O30    C34     1.369   .     S
O31    C35     1.301   .     A
O33    C35     1.308   .     A
C34    C263    1.484   .     S
C35    C281    1.470   .     S
O36    C22     1.288   1_554 A
O37    Yb21    2.097   1_556 S
O40    C46     1.314   .     A
O40    Yb43    2.196   .     S
Yb41   Yb43    2.953   .     S
Yb41   O44     2.151   .     S
Yb41   O49     2.211   .     S
Yb41   O50     2.048   .     S
Yb41   O51     2.148   .     S
Yb41   O56     2.147   .     S
Yb41   O57     2.124   .     S
Yb41   O59     2.146   .     S
C42    O56     1.284   .     A
C42    O57     1.276   .     A
C42    C119    1.479   .     S
Yb43   O47     2.116   .     S
Yb43   O50     2.090   .     S
Yb43   O52     2.142   .     S
Yb43   O53     2.234   .     S
Yb43   O58     2.188   .     S
Yb43   O59     2.166   .     S
O44    C46     1.307   .     A
C45    O58     1.218   .     D
C45    O59     1.372   .     S
C45    C137    1.468   .     S
C46    C251    1.476   .     S
O47    C48     1.277   .     A
C48    O52     1.281   .     A
C48    C227    1.480   1_545 S
O49    C54     1.228   .     D
O50    C54     1.376   .     S
O51    C55     1.302   .     A
O53    C55     1.318   .     A
C54    C215    1.480   .     S
C55    C155    1.468   .     S
O60    C66     1.320   .     A
O60    Yb63    2.224   .     S
Yb61   Yb63    2.969   .     S
Yb61   O64     2.210   .     S
Yb61   O69     2.204   .     S
Yb61   O70     2.192   .     S
Yb61   O71     2.148   .     S
Yb61   O76     2.142   .     S
Yb61   O77     2.120   .     S
Yb61   O79     2.077   .     S
C62    O76     1.283   .     A
C62    O77     1.274   .     A
C62    C287    1.471   .     S
Yb63   O67     2.135   .     S
Yb63   O70     2.155   .     S
Yb63   O72     2.158   .     S
Yb63   O73     2.178   .     S
Yb63   O78     2.191   .     S
Yb63   O79     2.042   .     S
O64    C66     1.320   .     A
C65    O78     1.225   .     D
C65    O79     1.373   .     S
C65    C173    1.462   .     S
C66    C125    1.481   .     S
O67    C68     1.279   .     A
C68    O72     1.280   .     A
C68    C209    1.473   .     S
O69    C74     1.222   .     D
O70    C74     1.368   .     S
O71    C75     1.302   .     A
O73    C75     1.304   .     A
C74    C101    1.474   .     S
C75    C197    1.478   .     S
C80    C81     1.406   .     A
C80    N85     1.357   .     A
C80    C86     1.471   .     S
C81    C82     1.396   .     A
C81    H96     1.083   .     S
C82    C83     1.399   .     A
C82    H92     1.083   .     S
C83    C84     1.406   .     A
C84    N85     1.357   .     A
C84    H93     1.082   .     S
C86    N87     1.364   .     A
C86    C91     1.401   .     A
N87    C88     1.363   .     A
C88    C89     1.400   .     A
C88    H94     1.083   .     S
C89    C90     1.399   .     A
C90    C91     1.388   .     A
C90    H95     1.084   .     S
C91    H97     1.082   .     S
C98    C99     1.400   .     A
C98    N103    1.362   .     A
C98    C104    1.472   .     S
C99    C100    1.400   .     A
C99    H114    1.082   .     S
C100   C101    1.406   .     A
C100   H110    1.084   .     S
C101   C102    1.398   .     A
C102   N103    1.358   .     A
C102   H111    1.083   .     S
C104   N105    1.358   .     A
C104   C109    1.404   .     A
N105   C106    1.355   .     A
C106   C107    1.401   .     A
C106   H112    1.083   1_545 S
C107   C108    1.404   .     A
C107   C25     1.473   1_545 S
C108   C109    1.403   .     A
C108   H113    1.084   .     S
C109   H115    1.082   .     S
H112   C106    1.083   1_565 S
C116   C117    1.404   .     A
C116   N121    1.364   .     A
C116   C122    1.485   .     S
C117   C118    1.398   .     A
C117   H132    1.081   .     S
C118   C119    1.405   .     A
C118   H128    1.083   .     S
C119   C120    1.401   .     A
C120   N121    1.360   .     A
C120   H129    1.083   .     S
C122   N123    1.358   .     A
C122   C127    1.411   .     A
N123   C124    1.355   .     A
C124   C125    1.404   .     A
C124   H130    1.082   .     S
C125   C126    1.403   .     A
C126   C127    1.405   .     A
C126   H131    1.083   .     S
C127   H133    1.081   .     S
C134   C135    1.398   .     A
C134   N139    1.360   .     A
C134   C140    1.462   .     S
C135   C136    1.396   .     A
C135   H150    1.082   .     S
C136   C137    1.405   .     A
C136   H146    1.083   .     S
C137   C138    1.399   .     A
C138   N139    1.357   .     A
C138   H147    1.082   .     S
C140   N141    1.352   .     A
C140   C145    1.404   .     A
N141   C142    1.350   .     A
C142   C143    1.409   1_546 A
C142   H148    1.082   1_545 S
C143   C142    1.409   1_564 A
C143   C144    1.406   1_554 A
C144   C143    1.406   1_556 A
C144   C145    1.406   1_565 A
C144   H149    1.083   1_556 S
C145   H151    1.084   .     S
C145   C144    1.406   1_545 A
H148   C142    1.082   1_565 S
H149   C144    1.083   1_554 S
C152   C153    1.400   .     A
C152   N157    1.361   .     A
C152   C158    1.468   .     S
C153   C154    1.389   .     A
C153   H168    1.083   .     S
C154   C155    1.401   .     A
C154   H164    1.083   .     S
C155   C156    1.404   .     A
C156   N157    1.362   .     A
C156   H165    1.083   .     S
C158   C163    1.400   .     A
C158   N159    1.361   1_545 A
N159   C160    1.363   .     A
N159   C158    1.361   1_565 A
C160   C161    1.405   .     A
C160   H166    1.082   .     S
C161   C162    1.399   .     A
C162   H167    1.083   .     S
C162   C163    1.388   1_565 A
C163   H169    1.084   .     S
C163   C162    1.388   1_545 A
C170   C171    1.399   .     A
C170   N175    1.361   .     A
C170   C176    1.463   .     S
C171   C172    1.395   .     A
C171   H186    1.083   .     S
C172   C173    1.402   .     A
C172   H182    1.083   .     S
C173   C174    1.398   .     A
C174   N175    1.357   .     A
C174   H183    1.082   .     S
C176   N177    1.356   .     A
C176   C181    1.402   .     A
N177   C178    1.355   .     A
C178   C179    1.407   .     A
C178   H184    1.083   .     S
C179   C180    1.401   .     A
C180   C181    1.399   .     A
C180   H185    1.082   .     S
C181   H187    1.082   .     S
C188   C189    1.407   .     A
C188   N193    1.354   .     A
C188   C194    1.466   .     S
C189   H204    1.082   .     S
C189   C190    1.405   1_554 A
C190   C191    1.402   .     A
C190   H200    1.082   .     S
C190   C189    1.405   1_556 A
C191   C192    1.407   1_556 A
C192   N193    1.354   .     A
C192   H201    1.082   .     S
C192   C191    1.407   1_554 A
C194   N195    1.359   .     A
C194   C199    1.400   .     A
N195   C196    1.356   .     A
C196   C197    1.403   .     A
C196   H202    1.083   .     S
C197   C198    1.407   .     A
C198   C199    1.400   .     A
C198   H203    1.082   .     S
C199   H205    1.082   .     S
C206   C207    1.402   .     A
C206   N211    1.363   .     A
C206   C212    1.479   .     S
C207   C208    1.392   .     A
C207   H222    1.082   .     S
C208   C209    1.399   .     A
C208   H218    1.083   .     S
C209   C210    1.406   .     A
C210   N211    1.366   .     A
C210   H219    1.083   .     S
C212   N213    1.365   .     A
C212   C217    1.399   .     A
N213   C214    1.366   1_455 A
C214   C215    1.405   .     A
C214   H220    1.082   .     S
C214   N213    1.366   1_655 A
C215   C216    1.402   1_655 A
C216   C217    1.393   .     A
C216   H221    1.082   .     S
C216   C215    1.402   1_455 A
C217   H223    1.082   .     S
C224   N229    1.361   .     A
C224   C230    1.473   .     S
C224   C225    1.400   1_455 A
C225   C226    1.391   .     A
C225   H240    1.084   .     S
C225   C224    1.400   1_655 A
C226   C227    1.403   .     A
C226   H236    1.084   .     S
C227   C228    1.408   1_655 A
C227   C48     1.480   1_565 S
C228   N229    1.365   .     A
C228   H237    1.082   .     S
C228   C227    1.408   1_455 A
C230   N231    1.362   .     A
C230   C235    1.400   1_455 A
N231   C232    1.365   .     A
C232   C233    1.405   .     A
C232   H238    1.083   .     S
C233   C234    1.399   .     A
C234   C235    1.391   1_455 A
C234   H239    1.083   1_455 S
C235   H241    1.083   .     S
C235   C230    1.400   1_655 A
C235   C234    1.391   1_655 A
H239   C234    1.083   1_655 S
C242   C243    1.413   .     A
C242   C248    1.483   .     S
C242   N247    1.357   1_655 A
C243   C244    1.404   .     A
C243   H258    1.080   .     S
C244   H254    1.083   .     S
C244   C245    1.399   1_655 A
C245   C246    1.405   .     A
C245   C244    1.399   1_455 A
C246   N247    1.354   .     A
C246   H255    1.083   .     S
N247   C242    1.357   1_455 A
C248   N249    1.367   .     A
C248   C253    1.400   .     A
N249   C250    1.364   .     A
C250   C251    1.400   .     A
C250   H256    1.082   .     S
C251   C252    1.403   .     A
C252   C253    1.391   .     A
C252   H257    1.083   .     S
C253   H259    1.081   .     S
C260   C261    1.395   .     A
C260   N265    1.364   .     A
C260   C266    1.467   .     S
C261   C262    1.387   .     A
C261   H276    1.083   .     S
C262   C263    1.406   .     A
C262   H272    1.080   .     S
C263   C264    1.407   .     A
C264   N265    1.366   .     A
C264   H273    1.085   .     S
C266   N267    1.361   .     A
C266   C271    1.401   .     A
N267   C268    1.362   1_554 A
C268   H274    1.083   .     S
C268   N267    1.362   1_556 A
C268   C269    1.402   1_556 A
C269   C270    1.400   .     A
C269   C268    1.402   1_554 A
C269   C8      1.465   1_654 S
C270   C271    1.391   .     A
C270   H275    1.085   1_655 S
C271   H277    1.082   .     S
H275   C270    1.085   1_455 S
C278   C279    1.402   .     A
C278   N283    1.361   .     A
C278   C284    1.474   .     S
C279   C280    1.394   .     A
C279   H294    1.083   .     S
C280   C281    1.402   .     A
C280   H290    1.083   .     S
C281   C282    1.403   .     A
C282   N283    1.362   .     A
C282   H291    1.083   .     S
C284   N285    1.361   .     A
C284   C289    1.403   .     A
N285   C286    1.363   .     A
C286   C287    1.405   .     A
C286   H292    1.082   .     S
C287   C288    1.399   .     A
C288   C289    1.394   .     A
C288   H293    1.084   .     S
C289   H295    1.083   .     S
