data_lcy+N505+E14
_audit_creation_date              2025-01-21
_audit_creation_method            'Materials Studio'
_symmetry_space_group_name_H-M    'P1'
_symmetry_Int_Tables_number       1
_symmetry_cell_setting            triclinic
loop_
_symmetry_equiv_pos_as_xyz
  x,y,z
_cell_length_a                    19.3487
_cell_length_b                    19.8636
_cell_length_c                    19.0742
_cell_angle_alpha                 97.2134
_cell_angle_beta                  95.5918
_cell_angle_gamma                 105.4168
loop_
_atom_site_label
_atom_site_type_symbol
_atom_site_fract_x
_atom_site_fract_y
_atom_site_fract_z
_atom_site_U_iso_or_equiv
_atom_site_adp_type
_atom_site_occupancy
Yb0    Yb    0.16975   0.60269   0.79889   0.00000  Uiso   1.00
Yb1    Yb    0.11507   0.66932   0.94396   0.00000  Uiso   1.00
C2     C     0.02837   0.72078   0.00244   0.00000  Uiso   1.00
O3     O     0.17822   0.49384   0.79489   0.00000  Uiso   1.00
O4     O     0.08736   0.51317   0.73846   0.00000  Uiso   1.00
O5     O     0.14143   0.69344   0.77221   0.00000  Uiso   1.00
O6     O     0.05618   0.67224   0.84179   0.00000  Uiso   1.00
O7     O     0.15574   0.57991   0.68359   0.00000  Uiso   1.00
O8     O     0.26121   0.61248   0.73883   0.00000  Uiso   1.00
O9     O     0.22329   0.70817   0.92593   0.00000  Uiso   1.00
O10    O     0.19561   0.68918   0.03233   0.00000  Uiso   1.00
C11    C     0.11875   0.46721   0.75358   0.00000  Uiso   1.00
O12    O     0.20455   0.53949   0.87151   0.00000  Uiso   1.00
O13    O     0.11409   0.55839   0.92565   0.00000  Uiso   1.00
O14    O     0.08563   0.76099  -0.01668   0.00000  Uiso   1.00
C15    C     0.08837   0.70892   0.79765   0.00000  Uiso   1.00
O16    O     1.02098   0.65391   0.99209   0.00000  Uiso   1.00
C17    C     0.22189   0.59012   0.67959   0.00000  Uiso   1.00
C18    C     0.24483   0.71042   0.99243   0.00000  Uiso   1.00
C19    C     0.16918   0.53471   0.92489   0.00000  Uiso   1.00
Yb20   Yb    0.70131   0.87869   0.10340   0.00000  Uiso   1.00
Yb21   Yb    0.52550   0.94127   0.23981   0.00000  Uiso   1.00
C22    C     0.47706   0.04302   0.24141   0.00000  Uiso   1.00
O23    O     0.66757   0.93921   0.03175   0.00000  Uiso   1.00
O24    O     0.78190   0.96143   0.07567   0.00000  Uiso   1.00
O25    O     0.69018   0.94557   0.20085   0.00000  Uiso   1.00
O26    O     0.63034   1.01374   0.24767   0.00000  Uiso   1.00
O27    O     0.73626   0.81330   0.02845   0.00000  Uiso   1.00
O28    O     0.76959   0.82169   0.14362   0.00000  Uiso   1.00
O29    O     0.54094   0.87370   0.31248   0.00000  Uiso   1.00
O30    O     0.43429   0.85956   0.25210   0.00000  Uiso   1.00
C31    C     0.73424   0.96963   0.02749   0.00000  Uiso   1.00
O32    O     0.59551   0.79992   0.09316   0.00000  Uiso   1.00
O33    O     0.56395   0.87500   0.16538   0.00000  Uiso   1.00
O34    O     0.48963   1.01801   0.29902   0.00000  Uiso   1.00
C35    C     0.68102   0.98476   0.25497   0.00000  Uiso   1.00
O36    O     0.48451   0.00859   0.18192   0.00000  Uiso   1.00
C37    C     0.77937   0.80277   0.07890   0.00000  Uiso   1.00
C38    C     0.47494   0.83544   0.29403   0.00000  Uiso   1.00
C39    C     0.54456   0.82180   0.11670   0.00000  Uiso   1.00
Yb40   Yb    0.92060   0.01680   0.67857   0.00000  Uiso   1.00
Yb41   Yb    0.84189   0.15674   0.56435   0.00000  Uiso   1.00
C42    C     0.73078   0.19193   0.53378   0.00000  Uiso   1.00
O43    O     0.85521   0.06424   0.73791   0.00000  Uiso   1.00
O44    O     0.83731   0.94944   0.72279   0.00000  Uiso   1.00
O45    O     0.85554  -0.00624   0.57269   0.00000  Uiso   1.00
O46    O     0.78163   0.05916   0.58842   0.00000  Uiso   1.00
O47    O     0.98966   1.00008   0.76375   0.00000  Uiso   1.00
O48    O    -0.01670   0.94738   0.65454   0.00000  Uiso   1.00
O49    O     0.91937   0.12501   0.50802   0.00000  Uiso   1.00
O50    O     0.91943   0.23602   0.52536   0.00000  Uiso   1.00
C51    C     0.82585   1.00495   0.75711   0.00000  Uiso   1.00
O52    O     0.99983   0.11578   0.66503   0.00000  Uiso   1.00
O53    O     0.90749   0.15942   0.66186   0.00000  Uiso   1.00
O54    O     0.75905   0.16072   0.48543   0.00000  Uiso   1.00
C55    C     0.80024   0.01208   0.55025   0.00000  Uiso   1.00
O56    O     0.76509   0.20630   0.59761   0.00000  Uiso   1.00
C57    C     0.00467   0.95171   0.72113   0.00000  Uiso   1.00
C58    C     0.95111   0.18941   0.50286   0.00000  Uiso   1.00
C59    C     0.97502   0.16980   0.66625   0.00000  Uiso   1.00
Yb60   Yb    0.32718   0.40310   0.28669   0.00000  Uiso   1.00
Yb61   Yb    0.37374   0.32501   0.42495   0.00000  Uiso   1.00
C62    C     0.46875   0.27208   0.46889   0.00000  Uiso   1.00
O63    O     0.31323   0.50697   0.31927   0.00000  Uiso   1.00
O64    O     0.41460   0.49907   0.29092   0.00000  Uiso   1.00
O65    O     0.36437   0.32247   0.23403   0.00000  Uiso   1.00
O66    O     0.43291   0.34862   0.33665   0.00000  Uiso   1.00
O67    O     0.33346   0.44016   0.18556   0.00000  Uiso   1.00
O68    O     0.23091   0.38884   0.20831   0.00000  Uiso   1.00
O69    O     0.26382   0.28705   0.37891   0.00000  Uiso   1.00
O70    O     0.29694   0.28838   0.49268   0.00000  Uiso   1.00
C71    C     0.37693   0.53988   0.31001   0.00000  Uiso   1.00
O72    O     0.28332   0.45318   0.37152   0.00000  Uiso   1.00
O73    O     0.36265   0.43105   0.45377   0.00000  Uiso   1.00
O74    O     0.41158   0.23391   0.42650   0.00000  Uiso   1.00
C75    C     0.41086   0.30849   0.27645   0.00000  Uiso   1.00
O76    O     0.47099   0.33695   0.48916   0.00000  Uiso   1.00
C77    C     0.26665   0.42211   0.16561   0.00000  Uiso   1.00
C78    C     0.24509   0.27554   0.44042   0.00000  Uiso   1.00
C79    C     0.31174   0.45835   0.43675   0.00000  Uiso   1.00
C80    C     0.44496   0.72770   1.03588   0.00000  Uiso   1.00
C81    C     0.46750   0.79034   0.08567   0.00000  Uiso   1.00
C82    C     0.41703   0.82820   0.09893   0.00000  Uiso   1.00
C83    C     0.34450   0.80090   0.07008   0.00000  Uiso   1.00
C84    C     0.32174   0.73793   1.02199   0.00000  Uiso   1.00
C85    C     0.37292   0.70282   1.00267   0.00000  Uiso   1.00
H86    H     0.48317   0.69906   1.02147   0.00000  Uiso   1.00
H87    H     0.43360   0.88004   0.13028   0.00000  Uiso   1.00
H88    H     0.30646   0.83020   0.08341   0.00000  Uiso   1.00
H89    H     0.35671   0.65533   0.96329   0.00000  Uiso   1.00
C90    C     0.49762   0.23684   0.29198   0.00000  Uiso   1.00
C91    C     0.43158   0.24273   0.26023   0.00000  Uiso   1.00
C92    C     0.38213   0.18312   0.21738   0.00000  Uiso   1.00
C93    C     0.39708   0.11762   0.20952   0.00000  Uiso   1.00
C94    C     0.46152   0.11134   0.24452   0.00000  Uiso   1.00
C95    C     0.51277   0.17164   0.28356   0.00000  Uiso   1.00
H96    H     0.53688   0.28237   0.32423   0.00000  Uiso   1.00
H97    H     0.33062   0.18647   0.19247   0.00000  Uiso   1.00
H98    H     0.35732   0.07152   0.17875   0.00000  Uiso   1.00
H99    H     0.56402   0.16788   0.30874   0.00000  Uiso   1.00
C100   C     0.65327   0.27208   0.55457   0.00000  Uiso   1.00
C101   C     0.66223   0.20996   0.51810   0.00000  Uiso   1.00
C102   C     0.60429   0.16449   0.46968   0.00000  Uiso   1.00
C103   C     0.53881   0.18174   0.45722   0.00000  Uiso   1.00
C104   C     0.53165   0.24633   0.49038   0.00000  Uiso   1.00
C105   C     0.58926   0.29062   0.54009   0.00000  Uiso   1.00
H106   H     0.69662   0.30734   0.59310   0.00000  Uiso   1.00
H107   H     0.60927   0.11530   0.44245   0.00000  Uiso   1.00
H108   H     0.49489   0.14584   0.41987   0.00000  Uiso   1.00
H109   H     0.58550   0.34049   0.56724   0.00000  Uiso   1.00
C110   C     0.85033   0.02356   0.88750   0.00000  Uiso   1.00
C111   C     0.79854   0.00462   0.82616   0.00000  Uiso   1.00
C112   C     0.72467   0.98797   0.83313   0.00000  Uiso   1.00
C113   C     0.70309   0.98521   0.90119   0.00000  Uiso   1.00
C114   C     0.75523  -0.00153   0.96245   0.00000  Uiso   1.00
C115   C     0.82900   0.02052   0.95494   0.00000  Uiso   1.00
H116   H     0.90777   0.03815   0.88266   0.00000  Uiso   1.00
H117   H     0.68431   0.97520   0.78617   0.00000  Uiso   1.00
H118   H     0.64568   0.96751   0.90541   0.00000  Uiso   1.00
H119   H     0.87027   0.03035   1.00066   0.00000  Uiso   1.00
C120   C     0.69998   1.00222   0.45555   0.00000  Uiso   1.00
C121   C     0.76804  -0.00705   0.47411   0.00000  Uiso   1.00
C122   C     0.80723  -0.02472   0.41926   0.00000  Uiso   1.00
C123   C     0.77931  -0.02968   0.34689   0.00000  Uiso   1.00
C124   C     0.71310   0.98481   0.32915   0.00000  Uiso   1.00
C125   C     0.67351   0.99915   0.38462   0.00000  Uiso   1.00
H126   H     0.66798   1.01493   0.49626   0.00000  Uiso   1.00
H127   H     0.86043  -0.03157   0.43220   0.00000  Uiso   1.00
H128   H     0.81050  -0.04185   0.30536   0.00000  Uiso   1.00
H129   H     0.62137   1.00874   0.37337   0.00000  Uiso   1.00
C130   C     0.34166   0.55111   0.54436   0.00000  Uiso   1.00
C131   C     0.28969   0.50171   0.49299   0.00000  Uiso   1.00
C132   C     0.21631   0.48685   0.50078   0.00000  Uiso   1.00
C133   C     0.19555   0.51824   0.56148   0.00000  Uiso   1.00
C134   C     0.24688   0.56692   0.61331   0.00000  Uiso   1.00
C135   C     0.32027   0.58413   0.60447   0.00000  Uiso   1.00
H136   H     0.39877   0.56247   0.53893   0.00000  Uiso   1.00
H137   H     0.17588   0.44699   0.46307   0.00000  Uiso   1.00
H138   H     0.14006   0.50054   0.57156   0.00000  Uiso   1.00
H139   H     0.36074   0.62047   0.64502   0.00000  Uiso   1.00
C140   C     0.15562   0.43257  -0.00656   0.00000  Uiso   1.00
C141   C     0.19106   0.50197   0.98483   0.00000  Uiso   1.00
C142   C     0.24709   0.54326   0.03668   0.00000  Uiso   1.00
C143   C     0.26928   0.51638   0.09538   0.00000  Uiso   1.00
C144   C     0.23630   0.44689   0.10382   0.00000  Uiso   1.00
C145   C     0.17837   0.40480   0.05320   0.00000  Uiso   1.00
H146   H     0.11128   0.40028   0.95422   0.00000  Uiso   1.00
H147   H     0.27257   0.59706   0.03301   0.00000  Uiso   1.00
H148   H     0.31127   0.55048   0.13616   0.00000  Uiso   1.00
H149   H     0.15214   0.35098   0.05921   0.00000  Uiso   1.00
C150   C     0.11538   0.27759   0.41871   0.00000  Uiso   1.00
C151   C     0.16841   0.25039   0.45127   0.00000  Uiso   1.00
C152   C     0.14836   0.20143   0.49774   0.00000  Uiso   1.00
C153   C     0.07670   0.17966   0.51119   0.00000  Uiso   1.00
C154   C     0.02415   0.20858   0.48091   0.00000  Uiso   1.00
C155   C     0.04396   0.25804   0.43474   0.00000  Uiso   1.00
H156   H     0.12977   0.31563   0.38266   0.00000  Uiso   1.00
H157   H     0.18832   0.18007   0.52376   0.00000  Uiso   1.00
H158   H     0.06293   0.14211   0.54780   0.00000  Uiso   1.00
H159   H     0.00418   0.28096   0.41085   0.00000  Uiso   1.00
C160   C     0.08493   0.87166   0.71198   0.00000  Uiso   1.00
C161   C     0.03371   0.89633   0.74696   0.00000  Uiso   1.00
C162   C     0.99932   0.85837   0.79761   0.00000  Uiso   1.00
C163   C     1.01483   0.79594   0.81220   0.00000  Uiso   1.00
C164   C     0.06693   0.77162   0.77808   0.00000  Uiso   1.00
C165   C     0.10227   0.81066   0.72822   0.00000  Uiso   1.00
H166   H     0.11097   0.89940   0.67170   0.00000  Uiso   1.00
H167   H     0.95756   0.87498   0.82308   0.00000  Uiso   1.00
H168   H     0.98563   0.76640   0.84962   0.00000  Uiso   1.00
H169   H     0.14313   0.79375   0.70121   0.00000  Uiso   1.00
C170   C     1.01658   0.36807   0.69265   0.00000  Uiso   1.00
C171   C     0.08792   0.39093   0.72615   0.00000  Uiso   1.00
C172   C     0.12632   0.34047   0.73433   0.00000  Uiso   1.00
C173   C     0.09251   0.26775   0.70993   0.00000  Uiso   1.00
C174   C     1.01945   0.24503   0.67896   0.00000  Uiso   1.00
C175   C     0.98265   0.29668   0.67122   0.00000  Uiso   1.00
H176   H     0.98522   0.40521   0.68614   0.00000  Uiso   1.00
H177   H     0.18116   0.35661   0.76152   0.00000  Uiso   1.00
H178   H     0.12176   0.22955   0.71935   0.00000  Uiso   1.00
H179   H     0.92547   0.28234   0.65200   0.00000  Uiso   1.00
C180   C     0.86646   0.72995   0.09565   0.00000  Uiso   1.00
C181   C     0.84355   0.78094   0.06241   0.00000  Uiso   1.00
C182   C     0.88600   0.81677   1.01524   0.00000  Uiso   1.00
C183   C     0.94971   0.80117   1.00032   0.00000  Uiso   1.00
C184   C     0.97046   0.74726   0.02994   0.00000  Uiso   1.00
C185   C     0.92882   0.71206   0.07814   0.00000  Uiso   1.00
H186   H     0.83505   0.70277   0.13310   0.00000  Uiso   1.00
H187   H     0.87002   0.85755   0.99042   0.00000  Uiso   1.00
H188   H     0.98104   0.82920   0.96343   0.00000  Uiso   1.00
H189   H     0.94423   0.67023   0.10148   0.00000  Uiso   1.00
C190   C     0.37558   0.72892   0.30516   0.00000  Uiso   1.00
C191   C     0.44980   0.76388   0.31266   0.00000  Uiso   1.00
C192   C     0.50011   0.72581   0.32640   0.00000  Uiso   1.00
C193   C     0.47665   0.65306   0.32787   0.00000  Uiso   1.00
C194   C     0.40245   0.61761   0.31756   0.00000  Uiso   1.00
C195   C     0.35211   0.65655   0.30855   0.00000  Uiso   1.00
H196   H     0.33584   0.75681   0.29376   0.00000  Uiso   1.00
H197   H     0.55762   0.75127   0.33134   0.00000  Uiso   1.00
H198   H     0.51634   0.62418   0.33517   0.00000  Uiso   1.00
H199   H     0.29463   0.63050   0.30026   0.00000  Uiso   1.00
loop_
_geom_bond_atom_site_label_1
_geom_bond_atom_site_label_2
_geom_bond_distance
_geom_bond_site_symmetry_2
_ccdc_geom_bond_type
Yb0    O3      2.204   .     S
Yb0    O4      2.157   .     S
Yb0    O5      2.124   .     S
Yb0    O7      2.164   .     S
Yb0    O8      2.180   .     S
Yb0    O12     2.157   .     S
Yb1    O6      2.175   .     S
Yb1    O9      2.109   .     S
Yb1    O13     2.182   .     S
Yb1    O10     2.102   1_556 S
Yb1    O14     2.120   1_556 S
Yb1    O16     2.086   1_455 S
C2     O14     1.296   .     A
C2     O16     1.285   1_454 A
C2     C184    1.472   1_455 S
O3     C11     1.273   .     A
O4     C11     1.270   .     A
O5     C15     1.269   .     A
O6     C15     1.282   .     A
O7     C17     1.253   .     A
O8     C17     1.257   .     A
O9     C18     1.287   .     A
O10    Yb1     2.102   1_554 S
O10    C18     1.293   1_554 A
C11    C171    1.478   .     S
O12    C19     1.280   .     A
O13    C19     1.275   .     A
O14    Yb1     2.120   1_554 S
C15    C164    1.491   .     S
O16    Yb1     2.086   1_655 S
O16    C2      1.285   1_656 A
C17    C134    1.461   .     S
C18    C84     1.469   .     S
C18    O10     1.293   1_556 A
C19    C141    1.466   .     S
Yb20   O23     2.096   .     S
Yb20   O24     2.105   .     S
Yb20   O25     2.208   .     S
Yb20   O27     2.092   .     S
Yb20   O28     2.105   .     S
Yb20   O32     2.195   .     S
Yb21   O26     2.131   .     S
Yb21   O29     2.100   .     S
Yb21   O30     2.111   .     S
Yb21   O33     2.135   .     S
Yb21   O34     2.089   .     S
Yb21   O36     2.098   1_565 S
C22    O36     1.290   .     A
C22    C94     1.461   .     S
C22    O34     1.290   1_545 A
O23    C31     1.286   .     A
O24    C31     1.294   .     A
O25    C35     1.269   .     A
O26    C35     1.267   .     A
O27    C37     1.285   .     A
O28    C37     1.292   .     A
O29    C38     1.289   .     A
O30    C38     1.289   .     A
C31    C114    1.478   1_564 S
O32    C39     1.276   .     A
O33    C39     1.263   .     A
O34    C22     1.290   1_565 A
C35    C124    1.488   .     S
O36    Yb21    2.098   1_545 S
C37    C181    1.469   .     S
C38    C191    1.475   .     S
C39    C81     1.485   .     S
Yb40   O43     2.101   .     S
Yb40   O45     2.200   .     S
Yb40   O52     2.210   .     S
Yb40   O44     2.122   1_545 S
Yb40   O47     2.118   1_545 S
Yb40   O48     2.103   1_645 S
Yb41   O46     2.110   .     S
Yb41   O49     2.108   .     S
Yb41   O50     2.131   .     S
Yb41   O53     2.134   .     S
Yb41   O54     2.114   .     S
Yb41   O56     2.094   .     S
C42    O54     1.292   .     A
C42    O56     1.288   .     A
C42    C101    1.476   .     S
O43    C51     1.279   1_545 A
O44    C51     1.292   .     A
O44    Yb40    2.122   1_565 S
O45    C55     1.272   .     A
O46    C55     1.262   .     A
O47    Yb40    2.118   1_565 S
O47    C57     1.291   1_655 A
O48    C57     1.282   .     A
O48    Yb40    2.103   1_465 S
O49    C58     1.284   .     A
O50    C58     1.293   .     A
C51    O43     1.279   1_565 A
C51    C111    1.466   1_565 S
O52    C59     1.285   .     A
O53    C59     1.260   .     A
C55    C121    1.484   .     S
C57    C161    1.476   .     S
C57    O47     1.291   1_455 A
C58    C154    1.479   1_655 S
C59    C174    1.489   .     S
Yb60   O63     2.173   .     S
Yb60   O64     2.173   .     S
Yb60   O65     2.107   .     S
Yb60   O67     2.152   .     S
Yb60   O68     2.204   .     S
Yb60   O72     2.154   .     S
Yb61   O66     2.158   .     S
Yb61   O69     2.117   .     S
Yb61   O70     2.108   .     S
Yb61   O73     2.181   .     S
Yb61   O74     2.127   .     S
Yb61   O76     2.083   .     S
C62    O74     1.296   .     A
C62    O76     1.286   .     A
C62    C104    1.482   .     S
O63    C71     1.273   .     A
O64    C71     1.270   .     A
O65    C75     1.260   .     A
O66    C75     1.277   .     A
O67    C77     1.252   .     A
O68    C77     1.257   .     A
O69    C78     1.291   .     A
O70    C78     1.292   .     A
C71    C194    1.474   .     S
O72    C79     1.290   .     A
O73    C79     1.279   .     A
C75    C91     1.471   .     S
C77    C144    1.463   .     S
C78    C151    1.478   .     S
C79    C131    1.459   .     S
C80    C85     1.404   .     A
C80    H86     1.082   .     S
C80    C81     1.405   1_556 A
C81    C82     1.405   .     A
C81    C80     1.405   1_554 A
C82    C83     1.391   .     A
C82    H87     1.074   .     S
C83    H88     1.083   .     S
C83    C84     1.393   1_554 A
C84    C85     1.406   .     A
C84    C83     1.393   1_556 A
C85    H89     1.082   .     S
C90    C91     1.400   .     A
C90    C95     1.396   .     A
C90    H96     1.085   .     S
C91    C92     1.410   .     A
C92    C93     1.399   .     A
C92    H97     1.084   .     S
C93    C94     1.399   .     A
C93    H98     1.085   .     S
C94    C95     1.405   .     A
C95    H99     1.084   .     S
C100   C101    1.399   .     A
C100   C105    1.395   .     A
C100   H106    1.083   .     S
C101   C102    1.406   .     A
C102   C103    1.404   .     A
C102   H107    1.080   .     S
C103   C104    1.405   .     A
C103   H108    1.082   .     S
C104   C105    1.407   .     A
C105   H109    1.083   .     S
C110   C111    1.405   .     A
C110   C115    1.392   .     A
C110   H116    1.088   .     S
C111   C112    1.402   1_545 A
C111   C51     1.466   1_545 S
C112   C113    1.405   .     A
C112   H117    1.085   .     S
C112   C111    1.402   1_565 A
C113   H118    1.087   .     S
C113   C114    1.416   1_565 A
C114   C115    1.405   .     A
C114   C113    1.416   1_545 A
C114   C31     1.478   1_546 S
C115   H119    1.084   .     S
C120   C125    1.387   .     A
C120   H126    1.085   .     S
C120   C121    1.396   1_565 A
C121   C122    1.413   .     A
C121   C120    1.396   1_545 A
C122   C123    1.414   .     A
C122   H127    1.083   .     S
C123   H128    1.083   .     S
C123   C124    1.405   1_545 A
C124   C125    1.409   .     A
C124   C123    1.405   1_565 A
C125   H129    1.082   .     S
C130   C131    1.406   .     A
C130   C135    1.401   .     A
C130   H136    1.085   .     S
C131   C132    1.398   .     A
C132   C133    1.390   .     A
C132   H137    1.084   .     S
C133   C134    1.399   .     A
C133   H138    1.082   .     S
C134   C135    1.402   .     A
C135   H139    1.083   .     S
C140   C145    1.410   .     A
C140   C141    1.405   1_554 A
C140   H146    1.081   1_554 S
C141   C140    1.405   1_556 A
C141   C142    1.393   1_556 A
C142   C143    1.379   .     A
C142   H147    1.065   .     S
C142   C141    1.393   1_554 A
C143   C144    1.395   .     A
C143   H148    1.084   .     S
C144   C145    1.406   .     A
C145   H149    1.080   .     S
H146   C140    1.081   1_556 S
C150   C151    1.409   .     A
C150   C155    1.408   .     A
C150   H156    1.085   .     S
C151   C152    1.402   .     A
C152   C153    1.398   .     A
C152   H157    1.085   .     S
C153   C154    1.406   .     A
C153   H158    1.085   .     S
C154   C155    1.404   .     A
C154   C58     1.479   1_455 S
C155   H159    1.085   .     S
C160   C161    1.404   .     A
C160   C165    1.403   .     A
C160   H166    1.087   .     S
C161   C162    1.409   1_455 A
C162   C163    1.405   .     A
C162   H167    1.084   .     S
C162   C161    1.409   1_655 A
C163   H168    1.086   .     S
C163   C164    1.407   1_655 A
C164   C165    1.415   .     A
C164   C163    1.407   1_455 A
C165   H169    1.086   .     S
C170   C175    1.384   .     A
C170   H176    1.084   .     S
C170   C171    1.393   1_655 A
C171   C172    1.412   .     A
C171   C170    1.393   1_455 A
C172   C173    1.415   .     A
C172   H177    1.081   .     S
C173   H178    1.082   .     S
C173   C174    1.408   1_455 A
C174   C175    1.410   .     A
C174   C173    1.408   1_655 A
C175   H179    1.080   .     S
C180   C181    1.403   .     A
C180   C185    1.404   .     A
C180   H186    1.085   .     S
C181   C182    1.409   1_554 A
C182   C183    1.395   .     A
C182   H187    1.085   .     S
C182   C181    1.409   1_556 A
C183   H188    1.084   .     S
C183   C184    1.401   1_556 A
C184   C185    1.411   .     A
C184   C183    1.401   1_554 A
C184   C2      1.472   1_655 S
C185   H189    1.085   .     S
C190   C191    1.403   .     A
C190   C195    1.400   .     A
C190   H196    1.082   .     S
C191   C192    1.407   .     A
C192   C193    1.400   .     A
C192   H197    1.082   .     S
C193   C194    1.403   .     A
C193   H198    1.083   .     S
C194   C195    1.406   .     A
C195   H199    1.081   .     S
