data_pcu+N248+E59
_audit_creation_date              2023-11-17
_audit_creation_method            'Materials Studio'
_symmetry_space_group_name_H-M    'P1'
_symmetry_Int_Tables_number       1
_symmetry_cell_setting            triclinic
loop_
_symmetry_equiv_pos_as_xyz
  x,y,z
_cell_length_a                    19.8427
_cell_length_b                    18.3311
_cell_length_c                    20.3077
_cell_angle_alpha                 112.5239
_cell_angle_beta                  88.1343
_cell_angle_gamma                 134.5548
loop_
_atom_site_label
_atom_site_type_symbol
_atom_site_fract_x
_atom_site_fract_y
_atom_site_fract_z
_atom_site_U_iso_or_equiv
_atom_site_adp_type
_atom_site_occupancy
O0     O     0.88123   0.87082   0.87905   0.00000  Uiso   1.00
Yb1    Yb    0.98175   0.02658   0.07866   0.00000  Uiso   1.00
C2     C     0.95559   1.10702   0.19398   0.00000  Uiso   1.00
Yb3    Yb    0.01500   0.93686   0.94352   0.00000  Uiso   1.00
O4     O     0.85418  -0.05669  -0.01528   0.00000  Uiso   1.00
C5     C     1.11102   0.14007   0.96856   0.00000  Uiso   1.00
C6     C     0.83248  -0.11018  -0.09005   0.00000  Uiso   1.00
O7     O     1.08664  -0.02528   0.86225   0.00000  Uiso   1.00
C8     C     0.05864  -0.12215   0.83123   0.00000  Uiso   1.00
O9     O     0.82216   0.85546   0.02107   0.00000  Uiso   1.00
O10    O    -0.06070   0.86645   1.01572   0.00000  Uiso   1.00
O11    O     0.13171   0.12134   0.13684   0.00000  Uiso   1.00
O12    O     0.00745   0.81334   0.86116   0.00000  Uiso   1.00
O13    O     0.14839   1.03220   1.03256   0.00000  Uiso   1.00
C14    C    -0.16282   0.79688  -0.00201   0.00000  Uiso   1.00
C15    C     0.18049   1.10359   1.10539   0.00000  Uiso   1.00
O16    O    -0.06685   1.01490   0.17229   0.00000  Uiso   1.00
O17    O     0.99126   0.15492   0.15268   0.00000  Uiso   1.00
O18    O     0.11933   0.08295   0.92132   0.00000  Uiso   1.00
O19    O     1.03731   0.07682  -0.00272   0.00000  Uiso   1.00
C20    C     0.00004   0.29633  -0.01691   0.00000  Uiso   1.00
C21    C    -0.06672   0.37122   0.02383   0.00000  Uiso   1.00
H22    H     0.75683   0.37182   0.80123   0.00000  Uiso   1.00
C23    C     0.95504   0.33785   0.90374   0.00000  Uiso   1.00
C24    C     0.98892   0.29577   0.91472   0.00000  Uiso   1.00
N25    N     0.78661   0.61920  -0.03442   0.00000  Uiso   1.00
N26    N     0.10852   0.26953  -0.03571   0.00000  Uiso   1.00
O27    O     0.77374   0.53648   0.84128   0.00000  Uiso   1.00
O28    O     0.04103   0.25114   0.05562   0.00000  Uiso   1.00
H29    H     0.72715   0.63451   0.89224   0.00000  Uiso   1.00
H30    H     0.68863   0.63141  -0.02651   0.00000  Uiso   1.00
H31    H     0.81030   0.29454   0.82225   0.00000  Uiso   1.00
H32    H    -0.08704   0.63672   0.04108   0.00000  Uiso   1.00
H33    H    -0.03358   0.55957   0.06191   0.00000  Uiso   1.00
H34    H     0.79805   0.62824   0.01927   0.00000  Uiso   1.00
H35    H    -0.02534   0.33284   0.09014   0.00000  Uiso   1.00
H36    H     0.21196   0.32231   0.05316   0.00000  Uiso   1.00
H37    H     0.23048   0.29644   0.96331   0.00000  Uiso   1.00
H38    H    -0.09165   0.39633   0.06568   0.00000  Uiso   1.00
H39    H     1.01071   0.26892   0.87078   0.00000  Uiso   1.00
H40    H     0.95188   0.34030   0.85160   0.00000  Uiso   1.00
H41    H     0.11598   0.28295   0.91802   0.00000  Uiso   1.00
C42    C     0.80282   0.41391   0.85852   0.00000  Uiso   1.00
C43    C     0.79407   0.55376   0.90533   0.00000  Uiso   1.00
C44    C     0.75314   0.66466   0.95358   0.00000  Uiso   1.00
C45    C     0.89283   0.42070   0.94394   0.00000  Uiso   1.00
C46    C     0.82748   0.50798   0.91963   0.00000  Uiso   1.00
C47    C     0.83376   0.36968   0.87052   0.00000  Uiso   1.00
C48    C    -0.11269   0.55986  -0.00701   0.00000  Uiso   1.00
C49    C    -0.08136   0.51584   0.00498   0.00000  Uiso   1.00
C50    C    -0.03017   0.33312   0.03732   0.00000  Uiso   1.00
C51    C     0.04915   0.26838   0.00203   0.00000  Uiso   1.00
C52    C     0.17209   0.26389  -0.00984   0.00000  Uiso   1.00
C53    C    -0.07220   0.37526  -0.04348   0.00000  Uiso   1.00
C54    C     0.70670   1.03429   0.92534   0.00000  Uiso   1.00
C55    C     0.62680   1.09114   0.92460   0.00000  Uiso   1.00
H56    H     0.58405   0.26975   0.21206   0.00000  Uiso   1.00
C57    C     0.67377   0.09832   0.03730   0.00000  Uiso   1.00
C58    C     0.71279   0.06053   0.00099   0.00000  Uiso   1.00
N59    N     0.33758   0.16187   0.11735   0.00000  Uiso   1.00
N60    N     0.71830   0.90023   0.89756   0.00000  Uiso   1.00
O61    O     0.39921   0.15787   0.20523   0.00000  Uiso   1.00
O62    O     0.76928   0.99840   0.83414   0.00000  Uiso   1.00
H63    H     0.25688   0.12561   0.19364   0.00000  Uiso   1.00
H64    H     0.32371   0.26189   1.19586   0.00000  Uiso   1.00
H65    H     0.68333   0.25324   0.15061   0.00000  Uiso   1.00
H66    H     0.35729   1.05218   0.99196   0.00000  Uiso   1.00
H67    H     0.45299   1.02813   0.92980   0.00000  Uiso   1.00
H68    H     0.34682   0.17915   1.07259   0.00000  Uiso   1.00
H69    H     0.66032   1.03371   0.82976   0.00000  Uiso   1.00
H70    H     0.75418   0.84335   0.80558   0.00000  Uiso   1.00
H71    H     0.67526   0.74289  -0.15986   0.00000  Uiso   1.00
H72    H     0.59536   1.10429   0.89445   0.00000  Uiso   1.00
H73    H     0.74348   0.04665   0.03107   0.00000  Uiso   1.00
H74    H     0.67620   0.11263   0.09453   0.00000  Uiso   1.00
H75    H     0.68201   0.87712  -0.06421   0.00000  Uiso   1.00
C76    C     0.55581   0.21875   0.15034   0.00000  Uiso   1.00
C77    C     0.39810   0.16042   0.14614   0.00000  Uiso   1.00
C78    C     0.27769   0.16742   0.15829   0.00000  Uiso   1.00
C79    C     0.57605   0.13831   0.03518   0.00000  Uiso   1.00
C80    C     0.46238   0.16085   0.10677   0.00000  Uiso   1.00
C81    C     0.61241   0.20866   0.11497   0.00000  Uiso   1.00
C82    C     0.42866   1.09688   1.02678   0.00000  Uiso   1.00
C83    C     0.48415   1.08424   0.99126   0.00000  Uiso   1.00
C84    C     0.66620   1.05356   0.88826   0.00000  Uiso   1.00
C85    C     0.73428   0.97763   0.88304   0.00000  Uiso   1.00
C86    C     0.74064   0.83764   0.85763   0.00000  Uiso   1.00
C87    C     0.62692   1.11010   0.99869   0.00000  Uiso   1.00
C88    C     0.08834  -0.01525   0.66201   0.00000  Uiso   1.00
C89    C     0.06977   0.09175   0.63956   0.00000  Uiso   1.00
H90    H     0.79044   0.86511   0.35077   0.00000  Uiso   1.00
C91    C     1.00356   0.91261   0.53344   0.00000  Uiso   1.00
C92    C     1.03781   0.90101   0.58355   0.00000  Uiso   1.00
N93    N     0.96759   0.14488   0.32287   0.00000  Uiso   1.00
N94    N     0.06333   0.85863   0.70696   0.00000  Uiso   1.00
O95    O     0.80695   1.00884   0.32498   0.00000  Uiso   1.00
O96    O     0.20512   0.06131   0.76833   0.00000  Uiso   1.00
H97    H     0.99050   1.25074   0.28470   0.00000  Uiso   1.00
H98    H     0.86097   0.10475   0.24678   0.00000  Uiso   1.00
H99    H     0.84201   0.83889   0.43972   0.00000  Uiso   1.00
H100   H     0.07129   0.23871   0.47254   0.00000  Uiso   1.00
H101   H     0.12525   0.21267   0.55984   0.00000  Uiso   1.00
H102   H     1.04134   0.18837   0.34151   0.00000  Uiso   1.00
H103   H     0.14081   0.14409   0.75013   0.00000  Uiso   1.00
H104   H     0.04482  -0.24772   0.74180   0.00000  Uiso   1.00
H105   H     0.16919   0.90490   0.78781   0.00000  Uiso   1.00
H106   H     0.08342   0.16669   0.66238   0.00000  Uiso   1.00
H107   H     1.02880   0.82974   0.56069   0.00000  Uiso   1.00
H108   H     0.96866   0.84985   0.47287   0.00000  Uiso   1.00
H109   H    -0.00786   0.78444   0.66349   0.00000  Uiso   1.00
C110   C     0.86310   0.94134   0.39675   0.00000  Uiso   1.00
C111   C     0.89536   1.06714   0.34972   0.00000  Uiso   1.00
C112   C     0.94136   1.15567   0.26337   0.00000  Uiso   1.00
C113   C     0.98773   1.02395   0.50691   0.00000  Uiso   1.00
C114   C     0.92685   1.05357   0.40495   0.00000  Uiso   1.00
C115   C     0.89333   0.92645   0.44697   0.00000  Uiso   1.00
C116   C     0.02144   0.15114   0.46451   0.00000  Uiso   1.00
C117   C     0.05174   0.13640   0.51484   0.00000  Uiso   1.00
C118   C     0.10384   0.08001   0.68965   0.00000  Uiso   1.00
C119   C     0.12453  -0.02707   0.71527   0.00000  Uiso   1.00
C120   C     0.08654  -0.15491   0.76594   0.00000  Uiso   1.00
C121   C     0.01975   0.00853   0.56081   0.00000  Uiso   1.00
loop_
_geom_bond_atom_site_label_1
_geom_bond_atom_site_label_2
_geom_bond_distance
_geom_bond_site_symmetry_2
_ccdc_geom_bond_type
O0     C6      1.310   1_566 A
O0     Yb3     2.174   1_655 S
Yb1    O4      2.245   .     S
Yb1    O17     2.125   .     S
Yb1    O19     2.102   .     S
Yb1    Yb3     2.936   1_644 S
Yb1    O9      2.174   1_545 S
Yb1    O10     2.165   1_644 S
Yb1    O11     2.161   1_655 S
Yb1    O16     2.120   1_645 S
C2     C112    1.492   .     S
C2     O16     1.278   1_655 A
C2     O17     1.276   1_565 A
Yb3    O10     2.158   .     S
Yb3    O12     2.141   .     S
Yb3    O13     2.175   .     S
Yb3    O0      2.174   1_455 S
Yb3    Yb1     2.936   1_466 S
Yb3    O7      2.137   1_465 S
Yb3    O18     2.178   1_565 S
Yb3    O19     2.065   1_466 S
O4     C6      1.327   .     A
C5     O18     1.227   1_655 D
C5     O19     1.381   1_556 S
C5     C52     1.492   1_656 S
C6     O0      1.310   1_544 A
C6     C86     1.505   1_544 S
O7     Yb3     2.137   1_645 S
O7     C8      1.281   1_655 A
C8     C120    1.494   .     S
C8     O7      1.281   1_455 A
C8     O12     1.275   1_545 A
O9     Yb1     2.174   1_565 S
O9     C14     1.231   1_655 D
O10    Yb1     2.165   1_466 S
O10    C14     1.390   1_556 S
O11    Yb1     2.161   1_455 S
O11    C15     1.301   1_544 A
O12    C8      1.275   1_565 A
O13    C15     1.309   .     A
C14    O9      1.231   1_455 D
C14    O10     1.390   1_554 S
C14    C44     1.490   1_454 S
C15    O11     1.301   1_566 A
C15    C78     1.500   1_566 S
O16    Yb1     2.120   1_465 S
O16    C2      1.278   1_455 A
O17    C2      1.276   1_545 A
O18    Yb3     2.178   1_545 S
O18    C5      1.227   1_455 D
O19    Yb3     2.065   1_644 S
O19    C5      1.381   1_554 S
C20    C50     1.408   .     A
C20    C51     1.495   .     S
C20    C24     1.408   1_454 A
C21    H38     1.082   .     S
C21    C50     1.400   .     A
C21    C53     1.409   .     A
H22    C42     1.084   .     S
C23    C24     1.402   .     A
C23    H40     1.082   .     S
C23    C53     1.353   1_656 D
C24    H39     1.078   .     S
C24    C20     1.408   1_656 A
N25    H34     1.045   .     S
N25    C43     1.439   1_554 S
N25    C44     1.462   1_554 S
N26    C51     1.376   .     S
N26    C52     1.465   .     S
N26    H41     1.040   1_554 S
O27    C43     1.222   .     D
O28    C51     1.221   .     D
H29    C44     1.113   .     S
H30    C44     1.111   1_554 S
H31    C47     1.082   .     S
H32    C48     1.082   .     S
H33    C49     1.083   .     S
H35    C50     1.082   .     S
H36    C52     1.112   .     S
H37    C52     1.111   1_556 S
H41    N26     1.040   1_556 S
C42    C46     1.403   .     A
C42    C47     1.398   .     A
C43    C46     1.486   .     S
C43    N25     1.439   1_556 S
C44    N25     1.462   1_556 S
C44    H30     1.111   1_556 S
C44    C14     1.490   1_656 S
C45    C47     1.407   .     A
C45    C49     1.404   1_656 A
C45    C53     1.492   1_656 S
C46    C48     1.407   1_656 A
C48    C49     1.400   .     A
C48    C46     1.407   1_454 A
C49    C45     1.404   1_454 A
C52    H37     1.111   1_554 S
C52    C5      1.492   1_454 S
C53    C23     1.353   1_454 D
C53    C45     1.492   1_454 S
C54    C84     1.407   .     A
C54    C85     1.483   .     S
C54    C58     1.404   1_566 A
C55    H72     1.082   .     S
C55    C84     1.400   .     A
C55    C87     1.408   .     A
H56    C76     1.083   .     S
C57    C58     1.395   .     A
C57    H74     1.084   .     S
C57    C87     1.409   1_544 A
C58    H73     1.081   .     S
C58    C54     1.404   1_544 A
N59    C77     1.374   .     S
N59    C78     1.468   .     S
N59    H68     1.043   1_554 S
N60    C85     1.373   .     S
N60    C86     1.466   .     S
N60    H75     1.043   1_556 S
O61    C77     1.220   .     D
O62    C85     1.219   .     D
H63    C78     1.110   .     S
H64    C78     1.109   1_556 S
H65    C81     1.082   .     S
H66    C82     1.082   .     S
H67    C83     1.083   .     S
H68    N59     1.043   1_556 S
H69    C84     1.084   .     S
H70    C86     1.108   .     S
H71    C86     1.105   1_554 S
H75    N60     1.043   1_554 S
C76    C80     1.404   .     A
C76    C81     1.396   .     A
C77    C80     1.480   .     S
C78    H64     1.109   1_554 S
C78    C15     1.500   1_544 S
C79    C81     1.407   .     A
C79    C83     1.413   1_544 A
C79    C87     1.492   1_544 S
C80    C82     1.404   1_544 A
C82    C83     1.402   .     A
C82    C80     1.404   1_566 A
C83    C79     1.413   1_566 A
C86    H71     1.105   1_556 S
C86    C6      1.505   1_566 S
C87    C57     1.409   1_566 A
C87    C79     1.492   1_566 S
C88    C118    1.402   .     A
C88    C119    1.477   .     S
C88    C92     1.404   1_445 A
C89    H106    1.083   .     S
C89    C118    1.398   .     A
C89    C121    1.407   .     A
H90    C110    1.079   .     S
C91    C92     1.398   .     A
C91    H108    1.081   .     S
C91    C121    1.405   1_665 A
C92    H107    1.081   .     S
C92    C88     1.404   1_665 A
N93    H102    1.043   .     S
N93    C111    1.435   1_545 S
N93    C112    1.463   1_545 S
N94    H109    1.044   .     S
N94    C119    1.437   1_565 S
N94    C120    1.460   1_565 S
O95    C111    1.220   .     D
O96    C119    1.218   .     D
H97    C112    1.114   .     S
H98    C112    1.111   1_545 S
H99    C115    1.082   .     S
H100   C116    1.079   .     S
H101   C117    1.079   .     S
H103   C118    1.082   .     S
H104   C120    1.110   .     S
H105   C120    1.114   1_565 S
C110   C114    1.400   .     A
C110   C115    1.399   .     A
C111   C114    1.479   .     S
C111   N93     1.435   1_565 S
C112   N93     1.463   1_565 S
C112   H98     1.111   1_565 S
C113   C115    1.403   .     A
C113   C117    1.405   1_665 A
C113   C121    1.489   1_665 S
C114   C116    1.402   1_665 A
C116   C117    1.399   .     A
C116   C114    1.402   1_445 A
C117   C113    1.405   1_445 A
C119   N94     1.437   1_545 S
C120   N94     1.460   1_545 S
C120   H105    1.114   1_545 S
C121   C91     1.405   1_445 A
C121   C113    1.489   1_445 S
