data_pcu+N394+E9
_audit_creation_date              2023-11-17
_audit_creation_method            'Materials Studio'
_symmetry_space_group_name_H-M    'P1'
_symmetry_Int_Tables_number       1
_symmetry_cell_setting            triclinic
loop_
_symmetry_equiv_pos_as_xyz
  x,y,z
_cell_length_a                    22.5703
_cell_length_b                    19.7826
_cell_length_c                    18.1154
_cell_angle_alpha                 72.6087
_cell_angle_beta                  109.8295
_cell_angle_gamma                 89.1446
loop_
_atom_site_label
_atom_site_type_symbol
_atom_site_fract_x
_atom_site_fract_y
_atom_site_fract_z
_atom_site_U_iso_or_equiv
_atom_site_adp_type
_atom_site_occupancy
Pr0    Pr    0.07191   0.99614  -0.00146   0.00000  Uiso   1.00
Pr1    Pr    0.93148  -0.00188   1.00322   0.00000  Uiso   1.00
O2     O     0.95053   0.11293   1.00240   0.00000  Uiso   1.00
O3     O     0.05241   0.11158  -0.00003   0.00000  Uiso   1.00
O4     O     0.14262   0.02715   0.93413   0.00000  Uiso   1.00
O5     O     0.17849   0.96570   0.06411   0.00000  Uiso   1.00
O6     O     1.02906   0.95284   0.09657   0.00000  Uiso   1.00
O7     O     0.09025   1.03140   0.11514   0.00000  Uiso   1.00
C8     C     0.94693   0.00028   0.85779   0.00000  Uiso   1.00
C9     C     1.00110   0.14314   0.00001   0.00000  Uiso   1.00
C10    C     0.19099  -0.00348   0.99931   0.00000  Uiso   1.00
C11    C     0.81239  -0.00228   0.00246   0.00000  Uiso   1.00
C12    C     0.00223   0.85123   1.00141   0.00000  Uiso   1.00
C13    C     0.05643   0.99422   0.14386   0.00000  Uiso   1.00
O14    O     0.05278   0.88146  -0.00099   0.00000  Uiso   1.00
O15    O     0.95099   0.88270   1.00174   0.00000  Uiso   1.00
O16    O     0.86077   0.96708   0.06762   0.00000  Uiso   1.00
O17    O     0.82489   0.02855   0.93766   0.00000  Uiso   1.00
O18    O    -0.02564   0.04152   0.90521   0.00000  Uiso   1.00
O19    O     0.91303  -0.03684   0.88640   0.00000  Uiso   1.00
C20    C     1.00178   0.64010   1.00039   0.00000  Uiso   1.00
N21    N     0.95059   0.67534   1.00246   0.00000  Uiso   1.00
N22    N     0.95078   0.74254   1.00298   0.00000  Uiso   1.00
C23    C     1.00219   0.77695   1.00153   0.00000  Uiso   1.00
N24    N     1.05340   0.74166  -0.00046   0.00000  Uiso   1.00
N25    N     1.05323   0.67445  -0.00093   0.00000  Uiso   1.00
C26    C     1.00158   0.56600   0.99988   0.00000  Uiso   1.00
N27    N     1.05278   0.53072  -0.00213   0.00000  Uiso   1.00
N28    N     1.05262   0.46348  -0.00253   0.00000  Uiso   1.00
C29    C     1.00121   0.42910   0.99896   0.00000  Uiso   1.00
N30    N     0.94999   0.46439   1.00090   0.00000  Uiso   1.00
N31    N     0.95018   0.53161   1.00136   0.00000  Uiso   1.00
C32    C     1.00108   0.35490   0.99880   0.00000  Uiso   1.00
N33    N     0.94949   0.32073   0.99973   0.00000  Uiso   1.00
N34    N     0.94946   0.25330   1.00002   0.00000  Uiso   1.00
C35    C     1.00102   0.21757   0.99936   0.00000  Uiso   1.00
N36    N     1.05258   0.25178  -0.00166   0.00000  Uiso   1.00
N37    N     1.05262   0.31920  -0.00191   0.00000  Uiso   1.00
C38    C     0.37635   0.99699   0.00032   0.00000  Uiso   1.00
N39    N     0.32621   1.03002   0.92956   0.00000  Uiso   1.00
N40    N     0.26709   1.02988   0.92924   0.00000  Uiso   1.00
C41    C     0.25601   0.99670  -0.00032   0.00000  Uiso   1.00
N42    N     0.30610  -0.03633   0.07043   0.00000  Uiso   1.00
N43    N     0.36522   0.96381   0.07075   0.00000  Uiso   1.00
C44    C     0.44151   0.99711   0.00065   0.00000  Uiso   1.00
N45    N     0.49164   0.96381   0.07130   0.00000  Uiso   1.00
N46    N     0.55074   0.96390   0.07158   0.00000  Uiso   1.00
C47    C     0.56190   0.99731   0.00123   0.00000  Uiso   1.00
N48    N     0.51178   1.03064   0.93059   0.00000  Uiso   1.00
N49    N     0.45267   1.03053   0.93030   0.00000  Uiso   1.00
C50    C     0.62705   0.99739   0.00154   0.00000  Uiso   1.00
N51    N     0.63821   1.03088   0.93120   0.00000  Uiso   1.00
N52    N     0.69732   1.03097   0.93148   0.00000  Uiso   1.00
C53    C     0.74738   0.99755   0.00211   0.00000  Uiso   1.00
N54    N     0.73628  -0.03592   0.07245   0.00000  Uiso   1.00
N55    N     0.67717   0.96399   0.07217   0.00000  Uiso   1.00
C56    C     0.02441   0.99554   0.35728   0.00000  Uiso   1.00
N57    N     1.06392   0.03866   0.32964   0.00000  Uiso   1.00
N58    N     1.07435   0.03811   0.26169   0.00000  Uiso   1.00
C59    C     0.04568   0.99437   0.21904   0.00000  Uiso   1.00
N60    N     0.00618   0.95127   0.24657   0.00000  Uiso   1.00
N61    N    -0.00424   0.95181   0.31454   0.00000  Uiso   1.00
C62    C     0.01268   0.99639   0.43196   0.00000  Uiso   1.00
N63    N    -0.02680   0.95325   0.45962   0.00000  Uiso   1.00
N64    N    -0.03755   0.95413   0.52726   0.00000  Uiso   1.00
C65    C    -0.00923   0.99818   0.56971   0.00000  Uiso   1.00
N66    N     0.03025   0.04132   0.54206   0.00000  Uiso   1.00
N67    N     0.04101   0.04045   0.47441   0.00000  Uiso   1.00
C68    C    -0.02097   0.99902   0.64438   0.00000  Uiso   1.00
N69    N     1.00776   0.04265   0.68725   0.00000  Uiso   1.00
N70    N     0.99730   0.04318   0.75520   0.00000  Uiso   1.00
C71    C    -0.04230   1.00018   0.78259   0.00000  Uiso   1.00
N72    N    -0.07105   0.95655   0.73984   0.00000  Uiso   1.00
N73    N    -0.06059   0.95600   0.67191   0.00000  Uiso   1.00
loop_
_geom_bond_atom_site_label_1
_geom_bond_atom_site_label_2
_geom_bond_distance
_geom_bond_site_symmetry_2
_ccdc_geom_bond_type
Pr0    O5      2.270   .     S
Pr0    O7      2.327   .     S
Pr0    O14     2.314   .     S
Pr0    O3      2.329   1_565 S
Pr0    O4      2.269   1_564 S
Pr0    O6      2.259   1_455 S
Pr0    O18     2.240   1_564 S
Pr1    O2      2.314   .     S
Pr1    O17     2.270   .     S
Pr1    O19     2.327   .     S
Pr1    O6      2.241   1_546 S
Pr1    O15     2.329   1_545 S
Pr1    O16     2.269   1_546 S
Pr1    O18     2.259   1_655 S
O2     C9      1.304   1_556 A
O3     Pr0     2.329   1_545 S
O3     C9      1.308   1_455 A
O4     C10     1.277   .     A
O4     Pr0     2.269   1_546 S
O5     C10     1.277   1_564 A
O6     Pr0     2.259   1_655 S
O6     Pr1     2.241   1_564 S
O6     C13     1.364   1_655 S
O7     C13     1.205   .     D
C8     O19     1.205   .     D
C8     O18     1.364   1_655 S
C8     C71     1.463   1_645 S
C9     O2      1.304   1_554 A
C9     O3      1.308   1_655 A
C9     C35     1.469   1_554 S
C10    O5      1.277   1_546 A
C10    C41     1.465   1_546 S
C11    O16     1.277   1_545 A
C11    O17     1.277   1_554 A
C11    C53     1.465   1_545 S
C12    O14     1.304   1_556 A
C12    O15     1.308   1_455 A
C12    C23     1.469   1_455 S
C13    C59     1.463   .     S
C13    O6      1.364   1_455 S
O14    C12     1.304   1_554 A
O15    Pr1     2.329   1_565 S
O15    C12     1.308   1_655 A
O16    Pr1     2.269   1_564 S
O16    C11     1.277   1_565 A
O17    C11     1.277   1_556 A
O18    Pr0     2.240   1_546 S
O18    Pr1     2.259   1_455 S
O18    C8      1.364   1_455 S
C20    N21     1.358   .     A
C20    C26     1.469   .     S
C20    N25     1.358   1_556 A
N21    N22     1.332   .     A
N22    C23     1.358   .     A
C23    N24     1.358   1_556 A
C23    C12     1.469   1_655 S
N24    N25     1.332   .     A
N24    C23     1.358   1_554 A
N25    C20     1.358   1_554 A
C26    N31     1.358   .     A
C26    N27     1.358   1_556 A
N27    N28     1.332   .     A
N27    C26     1.358   1_554 A
N28    C29     1.358   1_554 A
C29    N30     1.358   .     A
C29    C32     1.469   .     S
C29    N28     1.358   1_556 A
N30    N31     1.332   .     A
C32    N33     1.358   .     A
C32    N37     1.358   1_556 A
N33    N34     1.332   .     A
N34    C35     1.358   .     A
C35    N36     1.358   1_556 A
C35    C9      1.469   1_556 S
N36    N37     1.332   .     A
N36    C35     1.358   1_554 A
N37    C32     1.358   1_554 A
C38    N43     1.358   .     A
C38    C44     1.469   .     S
C38    N39     1.358   1_554 A
N39    N40     1.332   .     A
N39    C38     1.358   1_556 A
N40    C41     1.357   1_556 A
C41    N40     1.357   1_554 A
C41    N42     1.357   1_565 A
C41    C10     1.465   1_564 S
N42    C41     1.357   1_545 A
N42    N43     1.332   1_545 A
N43    N42     1.332   1_565 A
C44    N45     1.358   .     A
C44    N49     1.358   1_554 A
N45    N46     1.332   .     A
N46    C47     1.358   .     A
C47    C50     1.469   .     S
C47    N48     1.358   1_554 A
N48    N49     1.332   .     A
N48    C47     1.358   1_556 A
N49    C44     1.358   1_556 A
C50    N55     1.358   .     A
C50    N51     1.358   1_554 A
N51    N52     1.332   .     A
N51    C50     1.358   1_556 A
N52    C53     1.357   1_556 A
C53    N52     1.357   1_554 A
C53    N54     1.357   1_565 A
C53    C11     1.465   1_565 S
N54    C53     1.357   1_545 A
N54    N55     1.332   1_545 A
N55    N54     1.332   1_565 A
C56    N61     1.358   .     A
C56    C62     1.469   .     S
C56    N57     1.358   1_465 A
N57    N58     1.332   .     A
N57    C56     1.358   1_645 A
N58    C59     1.357   1_645 A
C59    N60     1.357   .     A
C59    N58     1.357   1_465 A
N60    N61     1.332   .     A
C62    N63     1.358   .     A
C62    N67     1.358   1_565 A
N63    N64     1.332   .     A
N64    C65     1.358   .     A
C65    C68     1.469   .     S
C65    N66     1.358   1_565 A
N66    N67     1.332   .     A
N66    C65     1.358   1_545 A
N67    C62     1.358   1_545 A
C68    N73     1.358   .     A
C68    N69     1.358   1_465 A
N69    N70     1.333   .     A
N69    C68     1.358   1_645 A
N70    C71     1.357   1_645 A
C71    N72     1.357   .     A
C71    N70     1.357   1_465 A
C71    C8      1.463   1_465 S
N72    N73     1.332   .     A
