data_pcu+N139+E229
_audit_creation_date              2023-11-17
_audit_creation_method            'Materials Studio'
_symmetry_space_group_name_H-M    'P1'
_symmetry_Int_Tables_number       1
_symmetry_cell_setting            triclinic
loop_
_symmetry_equiv_pos_as_xyz
  x,y,z
_cell_length_a                    24.3355
_cell_length_b                    20.9500
_cell_length_c                    22.5202
_cell_angle_alpha                 124.5500
_cell_angle_beta                  85.4731
_cell_angle_gamma                 58.0920
loop_
_atom_site_label
_atom_site_type_symbol
_atom_site_fract_x
_atom_site_fract_y
_atom_site_fract_z
_atom_site_U_iso_or_equiv
_atom_site_adp_type
_atom_site_occupancy
C0     C    -0.09444   0.14158   0.24286   0.00000  Uiso   1.00
Sm1    Sm    0.99133  -0.08951   0.88274   0.00000  Uiso   1.00
Sm2    Sm   -0.00322   1.10592   0.13233   0.00000  Uiso   1.00
C3     C     0.96408   0.12204   0.00917   0.00000  Uiso   1.00
C4     C     0.06986   1.16413   0.18023   0.00000  Uiso   1.00
O5     O     0.10718   0.84472   0.81584   0.00000  Uiso   1.00
O6     O     1.02067  -0.07811   0.79524   0.00000  Uiso   1.00
O7     O     0.03209   0.95197   0.01573   0.00000  Uiso   1.00
O8     O     0.99950   0.86499   0.95423   0.00000  Uiso   1.00
O9     O     0.88746  -0.05978  -0.10841   0.00000  Uiso   1.00
O10    O     1.00004   0.77994   0.78141   0.00000  Uiso   1.00
O11    O     0.88200   0.17706   0.21046   0.00000  Uiso   1.00
O12    O    -0.02337   1.08824   0.21796   0.00000  Uiso   1.00
O13    O     0.94809   0.07028   1.00223   0.00000  Uiso   1.00
O14    O    -0.01959   0.15783   0.06503   0.00000  Uiso   1.00
O15    O     0.10485   1.06791   1.11019   0.00000  Uiso   1.00
O16    O    -0.00350   0.22982   0.22646   0.00000  Uiso   1.00
C17    C     1.08915   0.87511   0.77907   0.00000  Uiso   1.00
C18    C     0.01621   0.90042   1.00954   0.00000  Uiso   1.00
C19    C     0.92667  -0.15721   0.81987   0.00000  Uiso   1.00
C20    C    -0.01789   0.82971   0.12066   0.00000  Uiso   1.00
C21    C     0.03737   0.81138   0.14243   0.00000  Uiso   1.00
C22    C     0.08261   0.82716   0.12451   0.00000  Uiso   1.00
C23    C     0.07367   0.86013   0.08388   0.00000  Uiso   1.00
C24    C     0.01854   0.87910   0.06183   0.00000  Uiso   1.00
C25    C    -0.02715   0.86371   0.08042   0.00000  Uiso   1.00
C26    C    -0.06308   0.80638   0.13548   0.00000  Uiso   1.00
H27    H     0.04566   0.78429   0.17283   0.00000  Uiso   1.00
H28    H     0.12522   0.81273   0.14133   0.00000  Uiso   1.00
H29    H     0.11052   0.86942   0.06849   0.00000  Uiso   1.00
H30    H     0.93160   0.87536   0.06157   0.00000  Uiso   1.00
H31    H    -0.08545   0.84238   0.20141   0.00000  Uiso   1.00
H32    H     0.88687   0.84339   0.12979   0.00000  Uiso   1.00
C33    C     0.99686   0.19660   0.90093   0.00000  Uiso   1.00
C34    C     0.00272   0.16858   0.94544   0.00000  Uiso   1.00
C35    C     0.03759   0.22778   0.89188   0.00000  Uiso   1.00
C36    C     0.01945   0.37960   0.94724   0.00000  Uiso   1.00
C37    C    -0.03761   0.50284   0.01947   0.00000  Uiso   1.00
C38    C     0.95044   0.19887   0.86747   0.00000  Uiso   1.00
C39    C     0.91059   0.17318   0.87816   0.00000  Uiso   1.00
C40    C     0.96264   0.14285   0.95654   0.00000  Uiso   1.00
H41    H     0.94511   0.22062   0.83322   0.00000  Uiso   1.00
H42    H     0.87496   0.17490   0.85207   0.00000  Uiso   1.00
H43    H     0.88365   0.12843   0.93212   0.00000  Uiso   1.00
H44    H     0.03746   0.16859   0.97264   0.00000  Uiso   1.00
H45    H     1.06394   0.18973   0.82554   0.00000  Uiso   1.00
C46    C    -0.05320   0.66156   0.08428   0.00000  Uiso   1.00
C47    C     0.00056   0.53913   0.01235   0.00000  Uiso   1.00
H48    H     0.07013   0.34426   0.95253   0.00000  Uiso   1.00
H49    H     0.91131   0.53912   0.01510   0.00000  Uiso   1.00
H50    H    -0.05657   0.53034   0.08226   0.00000  Uiso   1.00
H51    H     0.03885   0.35177   0.88432   0.00000  Uiso   1.00
H52    H     0.08454   0.19790   0.90339   0.00000  Uiso   1.00
H53    H     0.89440   0.70082   0.08250   0.00000  Uiso   1.00
H54    H    -0.06982   0.68867   0.14700   0.00000  Uiso   1.00
N55    N    -0.01248   0.68889   0.07152   0.00000  Uiso   1.00
N56    N     0.98204   0.34586   0.95430   0.00000  Uiso   1.00
C57    C     0.91601   0.14625   0.92318   0.00000  Uiso   1.00
C58    C     0.23102   1.15076   0.18387   0.00000  Uiso   1.00
C59    C     0.18998   0.26097   0.24163   0.00000  Uiso   1.00
C60    C     0.11063   0.33823   0.27948   0.00000  Uiso   1.00
C61    C     0.07156   0.30633   0.26028   0.00000  Uiso   1.00
C62    C     0.11123   0.19701   0.20366   0.00000  Uiso   1.00
C63    C     0.19125   1.11917   0.16542   0.00000  Uiso   1.00
C64    C     0.31671   1.06853   0.14210   0.00000  Uiso   1.00
H65    H     0.21961   0.28687   0.25691   0.00000  Uiso   1.00
H66    H     0.07937   0.42305   0.32333   0.00000  Uiso   1.00
H67    H     0.01075   0.36614   0.28722   0.00000  Uiso   1.00
H68    H     0.22252   1.03440   1.12119   0.00000  Uiso   1.00
H69    H     0.32933   1.09250   0.19325   0.00000  Uiso   1.00
H70    H     0.33955   0.98697   0.10538   0.00000  Uiso   1.00
C71    C     0.77470  -0.15821   0.79475   0.00000  Uiso   1.00
C72    C     0.80933  -0.12239   0.82856   0.00000  Uiso   1.00
C73    C     0.68859  -0.08171   0.84114   0.00000  Uiso   1.00
C74    C     0.58122  -0.04449   0.91243   0.00000  Uiso   1.00
C75    C     0.55382   0.93810  -0.03976   0.00000  Uiso   1.00
C76    C     0.82122   0.73371   0.71636   0.00000  Uiso   1.00
C77    C     0.90122   0.66286   0.67156   0.00000  Uiso   1.00
C78    C     0.88993   0.80611   0.78414   0.00000  Uiso   1.00
H79    H     0.79542   0.70476   0.68964   0.00000  Uiso   1.00
H80    H     0.93684   0.57977   0.61068   0.00000  Uiso   1.00
H81    H     0.99735   0.64348   0.66938   0.00000  Uiso   1.00
H82    H     0.77359  -0.03917  -0.11072   0.00000  Uiso   1.00
H83    H     0.67130  -0.08814   0.79517   0.00000  Uiso   1.00
C84    C     0.43503   0.99868   0.05170   0.00000  Uiso   1.00
C85    C     0.46815   0.00413  -0.00367   0.00000  Uiso   1.00
H86    H     0.54816   0.04306  -0.04199   0.00000  Uiso   1.00
H87    H     0.58667   0.85088   0.91574   0.00000  Uiso   1.00
H88    H     0.56372   0.96445   0.01349   0.00000  Uiso   1.00
H89    H     0.57054  -0.06958   0.85973   0.00000  Uiso   1.00
H90    H     0.66070   0.00322   0.89403   0.00000  Uiso   1.00
H91    H     0.46503   0.91336   0.01244   0.00000  Uiso   1.00
H92    H     0.44351   1.02997   0.10588   0.00000  Uiso   1.00
N93    N     0.35297   0.06553   0.08436   0.00000  Uiso   1.00
N94    N     0.66371  -0.10924   0.87642   0.00000  Uiso   1.00
C95    C     0.93539   0.69901   0.70501   0.00000  Uiso   1.00
C96    C     0.84042   1.10930   0.37409   0.00000  Uiso   1.00
C97    C     0.76068   1.18357   0.41080   0.00000  Uiso   1.00
C98    C     0.72845   0.24508   0.39404   0.00000  Uiso   1.00
C99    C     0.77548   0.23199   0.33962   0.00000  Uiso   1.00
C100   C     0.85538   1.15801   0.30232   0.00000  Uiso   1.00
C101   C     0.88733   1.09776   0.32065   0.00000  Uiso   1.00
C102   C     0.87601   1.04132   0.39051   0.00000  Uiso   1.00
H103   H     0.72334   1.19427   0.45262   0.00000  Uiso   1.00
H104   H     0.66684   0.30284   0.42310   0.00000  Uiso   1.00
H105   H     0.74934   0.28005   0.32710   0.00000  Uiso   1.00
H106   H    -0.05119   1.04067   0.29258   0.00000  Uiso   1.00
H107   H     0.83174   1.05484   0.42875   0.00000  Uiso   1.00
H108   H     0.92026   0.95460   0.32786   0.00000  Uiso   1.00
C109   C     0.16235  -0.09419   0.65141   0.00000  Uiso   1.00
C110   C     1.11424  -0.08704   0.69884   0.00000  Uiso   1.00
C111   C     0.13052  -0.03371   0.62811   0.00000  Uiso   1.00
C112   C     1.06158  -0.00315   0.56202   0.00000  Uiso   1.00
C113   C     1.02953   0.95958   0.51050   0.00000  Uiso   1.00
C114   C     0.23909   0.84502   0.62887   0.00000  Uiso   1.00
C115   C     0.26702   0.79280   0.65396   0.00000  Uiso   1.00
C116   C     0.14174  -0.13843   0.72501   0.00000  Uiso   1.00
H117   H     0.27714   0.83873   0.59256   0.00000  Uiso   1.00
H118   H     0.32618   0.74637   0.63666   0.00000  Uiso   1.00
H119   H     0.24107   0.76137   0.72186   0.00000  Uiso   1.00
H120   H     1.05494  -0.03972   0.71647   0.00000  Uiso   1.00
H121   H     0.17551  -0.04635   0.59204   0.00000  Uiso   1.00
C122   C     0.95224   0.99729   0.44661   0.00000  Uiso   1.00
C123   C     0.98603   0.03086   0.49713   0.00000  Uiso   1.00
H124   H     1.01304   0.08309   0.62474   0.00000  Uiso   1.00
H125   H     0.07772   0.87395   0.44721   0.00000  Uiso   1.00
H126   H     0.98975   0.96522   0.54585   0.00000  Uiso   1.00
H127   H     0.10227  -0.01029   0.52603   0.00000  Uiso   1.00
H128   H     1.08301   0.05413   0.68851   0.00000  Uiso   1.00
H129   H    -0.00019   0.91221   0.38242   0.00000  Uiso   1.00
H130   H     0.91195   1.00347   0.48196   0.00000  Uiso   1.00
N131   N     0.91108   0.06939   0.43701   0.00000  Uiso   1.00
N132   N     0.10173  -0.07063   0.57593   0.00000  Uiso   1.00
C133   C     0.21860   0.80133   0.70214   0.00000  Uiso   1.00
loop_
_geom_bond_atom_site_label_1
_geom_bond_atom_site_label_2
_geom_bond_distance
_geom_bond_site_symmetry_2
_ccdc_geom_bond_type
C0     O11     1.282   1_455 A
C0     O12     1.284   1_545 A
C0     C100    1.476   1_445 S
Sm1    O6      2.223   .     S
Sm1    O13     2.273   .     S
Sm1    O5      2.233   1_645 S
Sm1    O8      2.265   1_545 S
Sm1    O9      2.221   1_556 S
Sm1    O10     2.228   1_545 S
Sm2    O7      2.268   .     S
Sm2    O12     2.225   .     S
Sm2    O11     2.229   1_465 S
Sm2    O14     2.268   1_565 S
Sm2    O15     2.220   1_554 S
Sm2    O16     2.229   1_565 S
C3     O13     1.271   1_554 A
C3     O14     1.275   1_655 A
C3     C40     1.474   1_554 S
C4     O15     1.282   1_554 A
C4     O16     1.284   1_565 A
C4     C62     1.473   1_565 S
O5     Sm1     2.233   1_465 S
O5     C17     1.282   1_455 A
O6     C17     1.282   1_545 A
O7     C18     1.271   1_554 A
O8     Sm1     2.265   1_565 S
O8     C18     1.272   1_655 A
O9     Sm1     2.221   1_554 S
O9     C19     1.282   1_554 A
O10    Sm1     2.228   1_565 S
O10    C19     1.284   1_565 A
O11    C0      1.282   1_655 A
O11    Sm2     2.229   1_645 S
O12    C0      1.284   1_565 A
O13    C3      1.271   1_556 A
O14    Sm2     2.268   1_545 S
O14    C3      1.275   1_455 A
O15    Sm2     2.220   1_556 S
O15    C4      1.282   1_556 A
O16    Sm2     2.229   1_545 S
O16    C4      1.284   1_545 A
C17    O5      1.282   1_655 A
C17    O6      1.282   1_565 A
C17    C116    1.476   1_665 S
C18    O7      1.271   1_556 A
C18    O8      1.272   1_455 A
C18    C24     1.473   1_556 S
C19    O9      1.282   1_556 A
C19    O10     1.284   1_545 A
C19    C78     1.475   1_545 S
C20    C21     1.403   .     A
C20    C25     1.405   .     A
C20    C26     1.502   .     S
C21    C22     1.396   .     A
C21    H27     1.083   .     S
C22    C23     1.397   .     A
C22    H28     1.082   .     S
C23    C24     1.404   .     A
C23    H29     1.083   .     S
C24    C25     1.405   .     A
C24    C18     1.473   1_554 S
C25    H30     1.083   1_455 S
C26    H31     1.113   .     S
C26    N55     1.464   .     S
C26    H32     1.114   1_455 S
H30    C25     1.083   1_655 S
H32    C26     1.114   1_655 S
C33    C38     1.402   .     A
C33    C34     1.404   1_655 A
C33    C35     1.501   1_655 S
C34    H44     1.083   .     S
C34    C33     1.404   1_455 A
C34    C40     1.405   1_455 A
C35    H52     1.113   .     S
C35    C33     1.501   1_455 S
C35    H45     1.112   1_455 S
C35    N56     1.464   1_455 S
C36    H48     1.114   .     S
C36    H51     1.112   .     S
C36    C37     1.526   1_556 S
C36    N56     1.463   1_455 S
C37    C47     1.526   .     S
C37    H50     1.112   .     S
C37    C36     1.526   1_554 S
C37    H49     1.113   1_455 S
C38    C39     1.396   .     A
C38    H41     1.082   .     S
C39    H42     1.082   .     S
C39    C57     1.398   .     A
C40    C57     1.402   .     A
C40    C34     1.405   1_655 A
C40    C3      1.474   1_556 S
H43    C57     1.082   .     S
H45    C35     1.112   1_655 S
C46    C47     1.523   .     S
C46    H54     1.113   .     S
C46    N55     1.461   .     S
C46    H53     1.114   1_455 S
H49    C37     1.113   1_655 S
H53    C46     1.114   1_655 S
N56    C35     1.464   1_655 S
N56    C36     1.463   1_655 S
C58    C63     1.406   .     A
C58    C64     1.502   .     S
C58    C59     1.404   1_565 A
C59    C60     1.395   .     A
C59    H65     1.083   .     S
C59    C58     1.404   1_545 A
C60    C61     1.395   .     A
C60    H66     1.083   .     S
C61    C62     1.400   .     A
C61    H67     1.079   .     S
C62    C63     1.407   1_545 A
C62    C4      1.473   1_545 S
C63    C62     1.407   1_565 A
C63    H68     1.082   1_554 S
C64    H69     1.112   .     S
C64    H70     1.111   .     S
C64    N93     1.463   1_565 S
H68    C63     1.082   1_556 S
C71    C72     1.405   .     A
C71    C73     1.502   .     S
C71    C76     1.402   1_545 A
C72    C78     1.406   1_545 A
C72    H82     1.082   1_556 S
C73    H83     1.112   .     S
C73    H90     1.112   .     S
C73    N94     1.464   .     S
C74    H89     1.113   .     S
C74    N94     1.464   .     S
C74    C75     1.525   1_546 S
C74    H86     1.113   1_556 S
C75    H88     1.112   .     S
C75    C74     1.525   1_564 S
C75    C85     1.526   1_565 S
C75    H87     1.111   1_554 S
C76    C77     1.396   .     A
C76    H79     1.083   .     S
C76    C71     1.402   1_565 A
C77    H80     1.082   .     S
C77    C95     1.396   .     A
C78    C95     1.401   .     A
C78    C72     1.406   1_565 A
C78    C19     1.475   1_565 S
H81    C95     1.080   .     S
H82    C72     1.082   1_554 S
C84    H91     1.112   .     S
C84    H92     1.112   .     S
C84    C85     1.522   1_565 S
C84    N93     1.461   1_565 S
C85    C75     1.526   1_545 S
C85    C84     1.522   1_545 S
H86    C74     1.113   1_554 S
H87    C75     1.111   1_556 S
N93    C64     1.463   1_545 S
N93    C84     1.461   1_545 S
C96    C97     1.402   .     A
C96    C101    1.404   .     A
C96    C102    1.503   .     S
C97    H103    1.083   .     S
C97    C98     1.396   1_565 A
C98    C99     1.397   .     A
C98    H104    1.081   .     S
C98    C97     1.396   1_545 A
C99    H105    1.082   .     S
C99    C100    1.403   1_545 A
C100   C101    1.404   .     A
C100   C99     1.403   1_565 A
C100   C0      1.476   1_665 S
C101   H106    1.082   1_655 S
C102   H107    1.112   .     S
C102   H108    1.112   .     S
C102   N131    1.464   1_565 S
H106   C101    1.082   1_455 S
C109   C111    1.504   .     S
C109   C110    1.403   1_455 A
C109   C114    1.404   1_545 A
C110   H120    1.083   .     S
C110   C109    1.403   1_655 A
C110   C116    1.405   1_655 A
C111   H121    1.112   .     S
C111   N132    1.464   .     S
C111   H128    1.112   1_455 S
C112   H124    1.114   .     S
C112   C113    1.524   1_545 S
C112   H127    1.113   1_655 S
C112   N132    1.464   1_655 S
C113   H126    1.112   .     S
C113   C112    1.524   1_565 S
C113   C123    1.527   1_565 S
C113   H125    1.112   1_655 S
C114   C115    1.398   .     A
C114   H117    1.083   .     S
C114   C109    1.404   1_565 A
C115   H118    1.083   .     S
C115   C133    1.398   .     A
C116   C110    1.405   1_455 A
C116   C133    1.404   1_545 A
C116   C17     1.476   1_445 S
H119   C133    1.083   .     S
C122   H130    1.113   .     S
C122   C123    1.522   1_565 S
C122   H129    1.113   1_655 S
C122   N131    1.462   1_565 S
C123   C113    1.527   1_545 S
C123   C122    1.522   1_545 S
H125   C113    1.112   1_455 S
H127   C112    1.113   1_455 S
H128   C111    1.112   1_655 S
H129   C122    1.113   1_455 S
N131   C102    1.464   1_545 S
N131   C122    1.462   1_545 S
N132   C112    1.464   1_455 S
C133   C116    1.404   1_565 A
