data_pcu+N205+E59
_audit_creation_date              2023-11-17
_audit_creation_method            'Materials Studio'
_symmetry_space_group_name_H-M    'P1'
_symmetry_Int_Tables_number       1
_symmetry_cell_setting            triclinic
loop_
_symmetry_equiv_pos_as_xyz
  x,y,z
_cell_length_a                    23.8187
_cell_length_b                    23.8374
_cell_length_c                    18.9855
_cell_angle_alpha                 111.1289
_cell_angle_beta                  112.4465
_cell_angle_gamma                 26.1925
loop_
_atom_site_label
_atom_site_type_symbol
_atom_site_fract_x
_atom_site_fract_y
_atom_site_fract_z
_atom_site_U_iso_or_equiv
_atom_site_adp_type
_atom_site_occupancy
Y0     Y     0.00579   0.10078   0.02497   0.00000  Uiso   1.00
Y1     Y     0.93784   0.94566   0.96660   0.00000  Uiso   1.00
C2     C     0.69968   1.13547   0.98979   0.00000  Uiso   1.00
C3     C     1.04898  -0.03660   0.09989   0.00000  Uiso   1.00
C4     C    -0.10215   0.30088   0.09820   0.00000  Uiso   1.00
C5     C     0.24952  -0.09900   0.00653   0.00000  Uiso   1.00
C6     C    -0.10976   1.08852   0.89416   0.00000  Uiso   1.00
C7     C     1.06036   0.73971   0.88567   0.00000  Uiso   1.00
O8     O     0.72184   1.13189   0.93619   0.00000  Uiso   1.00
O9     O     0.80057   1.04144   0.03169   0.00000  Uiso   1.00
O10    O     0.96559   0.06075   0.06453   0.00000  Uiso   1.00
O11    O     1.05162   0.90389   0.07841   0.00000  Uiso   1.00
O12    O    -0.10889   0.28351   1.02675   0.00000  Uiso   1.00
O13    O    -0.04292   0.21666   0.13202   0.00000  Uiso   1.00
O14    O     0.21989  -0.08444   0.06187   0.00000  Uiso   1.00
O15    O     0.15347  -0.01248   0.95937   0.00000  Uiso   1.00
O16    O    -0.02856   0.99444   0.93206   0.00000  Uiso   1.00
O17    O    -0.11041   0.14602   0.91331   0.00000  Uiso   1.00
O18    O     1.07275   0.74968  -0.04247   0.00000  Uiso   1.00
O19    O     0.98428   0.83658   0.85549   0.00000  Uiso   1.00
C20    C     0.92198   0.44464   1.03239   0.00000  Uiso   1.00
C21    C     0.94588   0.47102   0.94068   0.00000  Uiso   1.00
H22    H     0.28062   0.38106   0.02382   0.00000  Uiso   1.00
C23    C     0.01733   0.46106   0.07498   0.00000  Uiso   1.00
C24    C    -0.02206   0.44687   1.09134   0.00000  Uiso   1.00
N25    N     0.09425   0.60334   0.85786   0.00000  Uiso   1.00
N26    N     0.90371   0.40218   0.11990   0.00000  Uiso   1.00
O27    O     0.23546   0.50337  -0.03067   0.00000  Uiso   1.00
O28    O     0.78685   0.47984   1.00046   0.00000  Uiso   1.00
H29    H     0.23403   0.54095  -0.14514   0.00000  Uiso   1.00
H30    H     0.10184   0.63967   0.77899   0.00000  Uiso   1.00
H31    H     0.21772   0.35158   0.05501   0.00000  Uiso   1.00
H32    H     0.91900   0.68365   0.87667   0.00000  Uiso   1.00
H33    H     0.85807   0.65209   0.90693   0.00000  Uiso   1.00
H34    H     1.02605   0.63307   0.81833   0.00000  Uiso   1.00
H35    H     0.86911   0.44988   0.90986   0.00000  Uiso   1.00
H36    H     0.73806   0.50039   1.12077   0.00000  Uiso   1.00
H37    H     0.86151   0.40356   0.20082   0.00000  Uiso   1.00
H38    H     0.93174   0.48116   0.88198   0.00000  Uiso   1.00
H39    H    -0.01208   0.44187   0.15039   0.00000  Uiso   1.00
H40    H     0.05895   0.46376   0.12156   0.00000  Uiso   1.00
H41    H    -0.01315   0.35016   0.15540   0.00000  Uiso   1.00
C42    C     0.18845   0.44035  -0.00240   0.00000  Uiso   1.00
C43    C     0.14988   0.54482  -0.07354   0.00000  Uiso   1.00
C44    C     0.12882   0.62508   0.84096   0.00000  Uiso   1.00
C45    C     0.03439   0.49772  -0.01759   0.00000  Uiso   1.00
C46    C     0.10714   0.53169  -0.05419   0.00000  Uiso   1.00
C47    C     0.15234   0.42382   0.01579   0.00000  Uiso   1.00
C48    C     0.98686   0.60873  -0.08578   0.00000  Uiso   1.00
C49    C     0.95109   0.59157   0.93212   0.00000  Uiso   1.00
C50    C     0.91028   0.45287   0.95673   0.00000  Uiso   1.00
C51    C     0.86656   0.44368   1.04868   0.00000  Uiso   1.00
C52    C     0.84349   0.40873   0.13822   0.00000  Uiso   1.00
C53    C     0.99811   0.47705   0.99971   0.00000  Uiso   1.00
C54    C     0.54569   0.11136   0.04010   0.00000  Uiso   1.00
C55    C     0.48060   0.08885   0.07968   0.00000  Uiso   1.00
H56    H     0.66088   0.68861   0.93723   0.00000  Uiso   1.00
C57    C     0.58152   0.97481   0.96567   0.00000  Uiso   1.00
C58    C     0.59279   1.02600   0.97769   0.00000  Uiso   1.00
N59    N     0.39659   0.84707   1.00727   0.00000  Uiso   1.00
N60    N     0.55496   0.18786  -0.00685   0.00000  Uiso   1.00
O61    O     0.51712   0.72256   0.91286   0.00000  Uiso   1.00
O62    O     0.55814   0.20203   0.11782   0.00000  Uiso   1.00
H63    H     0.40759   0.74300   0.94336   0.00000  Uiso   1.00
H64    H     0.45112   0.72775   0.04520   0.00000  Uiso   1.00
H65    H     0.69162   0.76843   0.96393   0.00000  Uiso   1.00
H66    H     0.28618   0.05269   0.00962   0.00000  Uiso   1.00
H67    H     0.31365   0.13530   0.03272   0.00000  Uiso   1.00
H68    H     0.35952  -0.08795   0.05312   0.00000  Uiso   1.00
H69    H     0.45619   0.20410   0.14087   0.00000  Uiso   1.00
H70    H     0.55167   0.28460   0.06034   0.00000  Uiso   1.00
H71    H     0.49439   0.31475   0.96060   0.00000  Uiso   1.00
H72    H     0.43760   0.11380   0.12019   0.00000  Uiso   1.00
H73    H     0.63945   0.99742   0.93822   0.00000  Uiso   1.00
H74    H     0.61663   0.91125   0.91623   0.00000  Uiso   1.00
H75    H     0.54608   1.16467   0.93726   0.00000  Uiso   1.00
C76    C     0.58563   0.78543   0.95906   0.00000  Uiso   1.00
C77    C     0.46250   0.80744   0.96181   0.00000  Uiso   1.00
C78    C     0.38389   0.79514   0.99923   0.00000  Uiso   1.00
C79    C     0.50566   0.95785   1.00100   0.00000  Uiso   1.00
C80    C     0.47400   0.86205   0.97381   0.00000  Uiso   1.00
C81    C     0.60205   0.83205   0.97325   0.00000  Uiso   1.00
C82    C     0.37593  -0.01089   0.00040   0.00000  Uiso   1.00
C83    C     0.39161   0.03647   0.01354   0.00000  Uiso   1.00
C84    C     0.49200   0.13992   0.09178   0.00000  Uiso   1.00
C85    C     0.55424   0.16898   0.05298   0.00000  Uiso   1.00
C86    C     0.56790   0.23979   0.00253   0.00000  Uiso   1.00
C87    C     0.52295   0.00768   0.01572   0.00000  Uiso   1.00
C88    C     0.94629   1.00498   0.65912   0.00000  Uiso   1.00
C89    C     1.02620   0.91379   0.53836   0.00000  Uiso   1.00
H90    H     0.17187  -0.01744   0.45679   0.00000  Uiso   1.00
C91    C    -0.04482   0.07637   0.60738   0.00000  Uiso   1.00
C92    C    -0.07429   1.08297   0.66451   0.00000  Uiso   1.00
N93    N     0.14558   0.90108   0.23086   0.00000  Uiso   1.00
N94    N     0.80900   0.12972   0.75988   0.00000  Uiso   1.00
O95    O     0.13721   0.00578   0.31518   0.00000  Uiso   1.00
O96    O     0.97900   0.91604   0.73355   0.00000  Uiso   1.00
H97    H     0.12887  -0.02107   0.17436   0.00000  Uiso   1.00
H98    H     0.24461   0.81851   0.14451   0.00000  Uiso   1.00
H99    H     0.12257  -0.00644   0.55835   0.00000  Uiso   1.00
H100   H     0.99930   0.97030   0.28809   0.00000  Uiso   1.00
H101   H     0.95003   0.98149   0.38943   0.00000  Uiso   1.00
H102   H     0.16206   0.84206   0.22649   0.00000  Uiso   1.00
H103   H     1.01509   0.85804   0.59048   0.00000  Uiso   1.00
H104   H     0.80559   1.07647   0.82363   0.00000  Uiso   1.00
H105   H     0.69496   0.23522   0.84483   0.00000  Uiso   1.00
H106   H     1.06556   0.84725   0.49010   0.00000  Uiso   1.00
H107   H    -0.11164   0.14799   0.71330   0.00000  Uiso   1.00
H108   H    -0.06220   0.13803   0.61286   0.00000  Uiso   1.00
H109   H     0.74637   0.21392   0.74239   0.00000  Uiso   1.00
C110   C     0.12297  -0.01726   0.44143   0.00000  Uiso   1.00
C111   C     0.12455  -0.03655   0.30322   0.00000  Uiso   1.00
C112   C     0.14777   0.91385   0.16263   0.00000  Uiso   1.00
C113   C     0.03330  -0.01257   0.48181   0.00000  Uiso   1.00
C114   C     0.09161  -0.02676   0.36448   0.00000  Uiso   1.00
C115   C     0.09474  -0.01089   0.49953   0.00000  Uiso   1.00
C116   C     1.02843  -0.02648   0.34678   0.00000  Uiso   1.00
C117   C     0.99967   0.98045   0.40480   0.00000  Uiso   1.00
C118   C     0.99831   0.91922   0.59599   0.00000  Uiso   1.00
C119   C     0.91507   1.01163   0.71928   0.00000  Uiso   1.00
C120   C     0.79358   0.13518   0.83085   0.00000  Uiso   1.00
C121   C     1.00476   0.99244   0.54339   0.00000  Uiso   1.00
loop_
_geom_bond_atom_site_label_1
_geom_bond_atom_site_label_2
_geom_bond_distance
_geom_bond_site_symmetry_2
_ccdc_geom_bond_type
Y0     O13     2.260   .     S
Y0     O14     2.255   .     S
Y0     O10     2.258   1_455 S
Y0     O12     2.247   1_554 S
Y0     O15     2.256   1_554 S
Y0     O17     2.265   1_554 S
Y1     O8      2.259   .     S
Y1     O19     2.258   .     S
Y1     O9      2.255   1_556 S
Y1     O11     2.265   1_556 S
Y1     O16     2.246   1_655 S
Y1     O18     2.254   1_556 S
C2     O8      1.260   .     A
C2     O9      1.261   1_556 A
C2     C86     1.494   1_566 S
C3     O10     1.270   .     A
C3     O11     1.275   1_545 A
C3     C112    1.496   1_645 S
C4     O13     1.260   .     A
C4     O12     1.259   1_554 A
C4     C52     1.494   1_455 S
C5     O14     1.259   .     A
C5     O15     1.260   1_554 A
C5     C78     1.491   1_544 S
C6     O16     1.267   .     A
C6     O17     1.272   1_565 A
C6     C120    1.496   1_465 S
C7     O19     1.263   .     A
C7     O18     1.261   1_556 A
C7     C44     1.495   1_655 S
O9     Y1      2.255   1_554 S
O9     C2      1.261   1_554 A
O10    Y0      2.258   1_655 S
O11    Y1      2.265   1_554 S
O11    C3      1.275   1_565 A
O12    Y0      2.247   1_556 S
O12    C4      1.259   1_556 A
O15    Y0      2.256   1_556 S
O15    C5      1.260   1_556 A
O16    Y1      2.246   1_455 S
O17    Y0      2.265   1_556 S
O17    C6      1.272   1_545 A
O18    Y1      2.254   1_554 S
O18    C7      1.261   1_554 A
C20    C50     1.407   .     A
C20    C51     1.487   .     S
C20    C24     1.406   1_655 A
C21    H38     1.084   .     S
C21    C50     1.396   .     A
C21    C53     1.402   .     A
H22    C42     1.081   .     S
C23    H40     1.083   .     S
C23    C24     1.399   1_554 A
C23    C53     1.406   1_454 A
C24    C20     1.406   1_455 A
C24    C23     1.399   1_556 A
C24    H39     1.081   1_556 S
N25    C44     1.462   .     S
N25    H34     1.044   1_455 S
N25    C43     1.440   1_556 S
N26    C52     1.464   .     S
N26    H41     1.044   1_655 S
N26    C51     1.439   1_554 S
O27    C43     1.221   .     D
O28    C51     1.221   .     D
H29    C44     1.109   1_554 S
H30    C44     1.111   .     S
H31    C47     1.082   .     S
H32    C48     1.081   1_556 S
H33    C49     1.082   .     S
H34    N25     1.044   1_655 S
H35    C50     1.083   .     S
H36    C52     1.109   1_556 S
H37    C52     1.110   .     S
H39    C24     1.081   1_554 S
H41    N26     1.044   1_455 S
C42    C46     1.407   .     A
C42    C47     1.396   .     A
C43    C46     1.487   .     S
C43    N25     1.440   1_554 S
C44    H29     1.109   1_556 S
C44    C7      1.495   1_455 S
C45    C47     1.400   .     A
C45    C49     1.407   1_454 A
C45    C53     1.482   1_454 S
C46    C48     1.407   1_455 A
C48    H32     1.081   1_554 S
C48    C46     1.407   1_655 A
C48    C49     1.398   1_554 A
C49    C45     1.407   1_656 A
C49    C48     1.398   1_556 A
C51    N26     1.439   1_556 S
C52    H36     1.109   1_554 S
C52    C4      1.494   1_655 S
C53    C23     1.406   1_656 A
C53    C45     1.482   1_656 S
C54    C84     1.406   .     A
C54    C85     1.487   .     S
C54    C58     1.408   1_544 A
C55    H72     1.083   .     S
C55    C84     1.397   .     A
C55    C87     1.405   .     A
H56    C76     1.079   .     S
C57    C58     1.397   .     A
C57    H74     1.085   .     S
C57    C87     1.406   1_566 A
C58    H73     1.082   .     S
C58    C54     1.408   1_566 A
N59    C77     1.374   .     S
N59    C78     1.465   .     S
N59    H68     1.047   1_566 S
N60    C85     1.375   .     S
N60    C86     1.464   .     S
N60    H75     1.045   1_544 S
O61    C77     1.222   .     D
O62    C85     1.220   .     D
H63    C78     1.112   .     S
H64    C78     1.111   1_554 S
H65    C81     1.082   .     S
H66    C82     1.085   .     S
H67    C83     1.085   .     S
H68    N59     1.047   1_544 S
H69    C84     1.084   .     S
H70    C86     1.110   .     S
H71    C86     1.113   1_556 S
H75    N60     1.045   1_566 S
C76    C80     1.403   .     A
C76    C81     1.394   .     A
C77    C80     1.483   .     S
C78    H64     1.111   1_556 S
C78    C5      1.491   1_566 S
C79    C81     1.404   .     A
C79    C83     1.408   1_566 A
C79    C87     1.486   1_566 S
C80    C82     1.409   1_566 A
C82    C83     1.399   .     A
C82    C80     1.409   1_544 A
C83    C79     1.408   1_544 A
C86    H71     1.113   1_554 S
C86    C2      1.494   1_544 S
C87    C57     1.406   1_544 A
C87    C79     1.486   1_544 S
C88    C118    1.405   .     A
C88    C119    1.479   .     S
C88    C92     1.404   1_655 A
C89    H106    1.083   .     S
C89    C118    1.398   .     A
C89    C121    1.405   .     A
H90    C110    1.083   .     S
C91    H108    1.083   .     S
C91    C92     1.398   1_545 A
C91    C121    1.406   1_445 A
C92    C88     1.404   1_455 A
C92    C91     1.398   1_565 A
C92    H107    1.082   1_565 S
N93    H102    1.044   .     S
N93    C112    1.462   .     S
N93    C111    1.437   1_565 S
N94    H109    1.045   .     S
N94    C120    1.461   .     S
N94    C119    1.436   1_545 S
O95    C111    1.220   .     D
O96    C119    1.220   .     D
H97    C112    1.111   1_545 S
H98    C112    1.113   .     S
H99    C115    1.083   .     S
H100   C116    1.083   1_565 S
H101   C117    1.083   .     S
H103   C118    1.083   .     S
H104   C120    1.110   1_565 S
H105   C120    1.114   .     S
H107   C92     1.082   1_545 S
C110   C114    1.406   .     A
C110   C115    1.398   .     A
C111   C114    1.482   .     S
C111   N93     1.437   1_545 S
C112   H97     1.111   1_565 S
C112   C3      1.496   1_465 S
C113   C115    1.406   .     A
C113   C117    1.406   1_445 A
C113   C121    1.484   1_445 S
C114   C116    1.405   1_455 A
C116   H100    1.083   1_545 S
C116   C114    1.405   1_655 A
C116   C117    1.397   1_545 A
C117   C113    1.406   1_665 A
C117   C116    1.397   1_565 A
C119   N94     1.436   1_565 S
C120   H104    1.110   1_545 S
C120   C6      1.496   1_645 S
C121   C91     1.406   1_665 A
C121   C113    1.484   1_665 S
