data_pcu+N205+E229
_audit_creation_date              2023-11-17
_audit_creation_method            'Materials Studio'
_symmetry_space_group_name_H-M    'P1'
_symmetry_Int_Tables_number       1
_symmetry_cell_setting            triclinic
loop_
_symmetry_equiv_pos_as_xyz
  x,y,z
_cell_length_a                    25.6264
_cell_length_b                    22.2299
_cell_length_c                    21.2039
_cell_angle_alpha                 137.1555
_cell_angle_beta                  99.8545
_cell_angle_gamma                 60.7691
loop_
_atom_site_label
_atom_site_type_symbol
_atom_site_fract_x
_atom_site_fract_y
_atom_site_fract_z
_atom_site_U_iso_or_equiv
_atom_site_adp_type
_atom_site_occupancy
Y0     Y     0.04069   0.12003   0.07326   0.00000  Uiso   1.00
Y1     Y     0.94307   0.91776   0.93739   0.00000  Uiso   1.00
C2     C     0.81695   1.02126   0.97494   0.00000  Uiso   1.00
C3     C     0.97278   0.07046   0.13293   0.00000  Uiso   1.00
C4     C    -0.00956   0.32231   0.18293   0.00000  Uiso   1.00
C5     C     0.16289   0.01146   0.05115   0.00000  Uiso   1.00
C6     C     0.01748   0.96569   0.87792   0.00000  Uiso   1.00
C7     C     1.00362   0.70727   0.80430   0.00000  Uiso   1.00
O8     O     0.85500   1.00065   0.92234   0.00000  Uiso   1.00
O9     O     0.84425   0.98861   0.00796   0.00000  Uiso   1.00
O10    O     0.96853   0.10715   0.10497   0.00000  Uiso   1.00
O11    O     0.96105   0.99864   0.08278   0.00000  Uiso   1.00
O12    O     0.00261   0.24927   1.09170   0.00000  Uiso   1.00
O13    O     0.00457   0.29069   0.21777   0.00000  Uiso   1.00
O14    O     0.11778   0.03939   0.10086   0.00000  Uiso   1.00
O15    O     0.14454   0.04027   1.01367   0.00000  Uiso   1.00
O16    O    -0.00204   0.96727   0.93041   0.00000  Uiso   1.00
O17    O     0.04099   0.02081   0.91649   0.00000  Uiso   1.00
O18    O     0.98271   0.77286  -0.10500   0.00000  Uiso   1.00
O19    O     0.99401   0.75062   0.78247   0.00000  Uiso   1.00
C20    C     1.07702   0.44149   0.69474   0.00000  Uiso   1.00
C21    C     1.09200   0.37543   0.59451   0.00000  Uiso   1.00
C22    C     1.07979   0.41711   0.56308   0.00000  Uiso   1.00
C23    C     1.05163   0.52524   0.63139   0.00000  Uiso   1.00
C24    C     1.03518   0.59270   0.73190   0.00000  Uiso   1.00
C25    C     0.04851   0.55025   0.76313   0.00000  Uiso   1.00
C26    C     0.09329   0.39666   0.72928   0.00000  Uiso   1.00
H27    H     1.11412   0.29135   0.54046   0.00000  Uiso   1.00
H28    H     1.09265   0.36570   0.48587   0.00000  Uiso   1.00
H29    H     1.04262   0.55618   0.60579   0.00000  Uiso   1.00
H30    H     0.03699   0.60129   0.84047   0.00000  Uiso   1.00
H31    H     1.11369   0.31029   0.66650   0.00000  Uiso   1.00
H32    H     0.12936   0.41038   0.76626   0.00000  Uiso   1.00
C33    C    -0.07701   0.56397   0.25083   0.00000  Uiso   1.00
C34    C     0.94782   0.46026   0.19636   0.00000  Uiso   1.00
C35    C     0.90723   0.59185   0.20050   0.00000  Uiso   1.00
C36    C     0.94867   0.54237   0.06560   0.00000  Uiso   1.00
C37    C     1.00856   0.47261   0.98621   0.00000  Uiso   1.00
C38    C    -0.08717   0.64055   0.35204   0.00000  Uiso   1.00
C39    C    -0.07285   0.61349   0.39776   0.00000  Uiso   1.00
C40    C    -0.03682   0.43220   0.24167   0.00000  Uiso   1.00
H41    H    -0.10598   0.72090   0.39549   0.00000  Uiso   1.00
H42    H    -0.08122   0.67284   0.47574   0.00000  Uiso   1.00
H43    H    -0.03678   0.49044   0.37972   0.00000  Uiso   1.00
H44    H     0.95568   0.40114   0.11824   0.00000  Uiso   1.00
H45    H     0.88858   0.67652   0.25359   0.00000  Uiso   1.00
C46    C     1.05294   0.42199   0.84626   0.00000  Uiso   1.00
C47    C     0.99395   0.48877   0.92512   0.00000  Uiso   1.00
H48    H     0.91420   0.52030   0.03034   0.00000  Uiso   1.00
H49    H     0.04339   0.49352   1.02124   0.00000  Uiso   1.00
H50    H     1.02869   0.38890   0.93856   0.00000  Uiso   1.00
H51    H     0.92832   0.62623   0.11296   0.00000  Uiso   1.00
H52    H     0.87004   0.57707   0.16809   0.00000  Uiso   1.00
H53    H     0.08889   0.43898   0.88131   0.00000  Uiso   1.00
H54    H     1.07151   0.33712   0.79242   0.00000  Uiso   1.00
N55    N     1.03662   0.44891   0.79716   0.00000  Uiso   1.00
N56    N    -0.03609   0.52716   0.12433   0.00000  Uiso   1.00
C57    C    -0.04774   0.50983   0.34294   0.00000  Uiso   1.00
C58    C     0.34040   0.87405   0.97375   0.00000  Uiso   1.00
C59    C     0.35768   0.83448   1.00847   0.00000  Uiso   1.00
C60    C     0.31158   0.85318   1.05738   0.00000  Uiso   1.00
C61    C     0.24787   0.91160   1.07222   0.00000  Uiso   1.00
C62    C     0.22983   0.95133   1.03752   0.00000  Uiso   1.00
C63    C     0.27636   0.93254   0.98863   0.00000  Uiso   1.00
C64    C     0.38989   0.85526   0.92239   0.00000  Uiso   1.00
H65    H     0.40687   0.78902   0.99742   0.00000  Uiso   1.00
H66    H     0.32528   0.82199   1.08360   0.00000  Uiso   1.00
H67    H     0.21286   0.92477   1.10978   0.00000  Uiso   1.00
H68    H     0.26281  -0.03629   0.96238   0.00000  Uiso   1.00
H69    H     0.42733   0.76996   0.86328   0.00000  Uiso   1.00
H70    H     0.36858  -0.12115   0.88819   0.00000  Uiso   1.00
C71    C     0.64502   0.13108   0.05842   0.00000  Uiso   1.00
C72    C     0.71066   1.07824   0.03829   0.00000  Uiso   1.00
C73    C     0.60512   1.13094   0.10257   0.00000  Uiso   1.00
C74    C     0.54419   1.05959   0.06748   0.00000  Uiso   1.00
C75    C     0.51816   0.99437   0.98997   0.00000  Uiso   1.00
C76    C     0.61679   0.18435   0.03699   0.00000  Uiso   1.00
C77    C     0.65383   0.18331  -0.00542   0.00000  Uiso   1.00
C78    C     0.74814   0.07680  -0.00453   0.00000  Uiso   1.00
H79    H     0.56610   0.22675   0.05333   0.00000  Uiso   1.00
H80    H     0.63176   0.22448  -0.02181   0.00000  Uiso   1.00
H81    H     0.74720   0.12916  -0.05984   0.00000  Uiso   1.00
H82    H     0.73261   1.03718   1.05487   0.00000  Uiso   1.00
H83    H     0.56655   0.21339   0.16840   0.00000  Uiso   1.00
C84    C     0.45546   0.91728   0.95071   0.00000  Uiso   1.00
C85    C     0.48221   0.98205   1.02651   0.00000  Uiso   1.00
H86    H     0.57640   1.01906   0.08371   0.00000  Uiso   1.00
H87    H     0.48590   0.03449   0.97355   0.00000  Uiso   1.00
H88    H     0.55776   0.91545   0.92219   0.00000  Uiso   1.00
H89    H     0.50457   1.13890   0.13521   0.00000  Uiso   1.00
H90    H     0.63390   1.09650   0.12556   0.00000  Uiso   1.00
H91    H     0.42588  -0.04608   0.92997   0.00000  Uiso   1.00
H92    H     0.49492   0.83567   0.88509   0.00000  Uiso   1.00
N93    N     0.41708   0.91597   0.99291   0.00000  Uiso   1.00
N94    N     0.57868   0.06978   0.03050   0.00000  Uiso   1.00
C95    C     0.71926   0.12932  -0.02672   0.00000  Uiso   1.00
C96    C    -0.02119   0.14012   0.35826   0.00000  Uiso   1.00
C97    C     0.00579   0.19996   0.40390   0.00000  Uiso   1.00
C98    C     0.02196   0.21783   0.36153   0.00000  Uiso   1.00
C99    C     0.01131   0.17631   0.27356   0.00000  Uiso   1.00
C100   C    -0.01287   0.11212   0.22426   0.00000  Uiso   1.00
C101   C     0.97126   0.09415   0.26740   0.00000  Uiso   1.00
C102   C     0.95318   0.13302   0.40994   0.00000  Uiso   1.00
H103   H     0.01218   0.23578   0.47387   0.00000  Uiso   1.00
H104   H     0.04134   0.26607   0.39803   0.00000  Uiso   1.00
H105   H     0.02179   0.19473   0.24454   0.00000  Uiso   1.00
H106   H     0.95017   0.04830   0.23260   0.00000  Uiso   1.00
H107   H     0.92311   0.21339   0.48552   0.00000  Uiso   1.00
H108   H     0.92289   0.10105   0.37219   0.00000  Uiso   1.00
C109   C     0.04146   0.83867   0.62427   0.00000  Uiso   1.00
C110   C     0.04649   0.89223   0.71810   0.00000  Uiso   1.00
C111   C     0.07444   0.82866   0.56225   0.00000  Uiso   1.00
C112   C     0.05634   0.89847   0.50625   0.00000  Uiso   1.00
C113   C     1.00424  -0.02771   0.50658   0.00000  Uiso   1.00
C114   C     1.00262   0.79903   0.59061   0.00000  Uiso   1.00
C115   C     0.96879   0.81390   0.65037   0.00000  Uiso   1.00
C116   C     1.01277   0.90677   0.77841   0.00000  Uiso   1.00
H117   H     0.99772   0.75834   0.51889   0.00000  Uiso   1.00
H118   H     0.93805   0.78485   0.62513   0.00000  Uiso   1.00
H119   H     0.94603   0.87999   0.78858   0.00000  Uiso   1.00
H120   H     0.07625   0.92328   0.74420   0.00000  Uiso   1.00
H121   H     0.10057   0.74530   0.48764   0.00000  Uiso   1.00
C122   C     0.97841   0.05574   0.45834   0.00000  Uiso   1.00
C123   C     0.03131   0.98270   0.45825   0.00000  Uiso   1.00
H124   H     0.08747   0.92831   0.54436   0.00000  Uiso   1.00
H125   H     0.97398  -0.05889   0.46672   0.00000  Uiso   1.00
H126   H     0.97487   0.05118   0.58337   0.00000  Uiso   1.00
H127   H     0.08438   0.81822   0.42963   0.00000  Uiso   1.00
H128   H     0.10891   0.85223   0.59399   0.00000  Uiso   1.00
H129   H     0.94897   0.02281   0.41775   0.00000  Uiso   1.00
H130   H     0.94894   0.13454   0.53526   0.00000  Uiso   1.00
N131   N     0.00469   0.06543   0.41207   0.00000  Uiso   1.00
N132   N     0.02711   0.89626   0.55754   0.00000  Uiso   1.00
C133   C     0.97375   0.86752   0.74348   0.00000  Uiso   1.00
loop_
_geom_bond_atom_site_label_1
_geom_bond_atom_site_label_2
_geom_bond_distance
_geom_bond_site_symmetry_2
_ccdc_geom_bond_type
Y0     O13     2.266   .     S
Y0     O14     2.268   .     S
Y0     O10     2.275   1_455 S
Y0     O12     2.259   1_554 S
Y0     O15     2.254   1_554 S
Y0     O17     2.271   1_554 S
Y1     O8      2.268   .     S
Y1     O19     2.266   .     S
Y1     O9      2.254   1_556 S
Y1     O11     2.268   1_556 S
Y1     O16     2.244   1_655 S
Y1     O18     2.255   1_556 S
C2     O8      1.261   .     A
C2     O9      1.260   1_556 A
C2     C78     1.474   1_566 S
C3     O10     1.276   .     A
C3     O11     1.281   1_545 A
C3     C100    1.484   1_655 S
C4     O13     1.262   .     A
C4     C40     1.475   .     S
C4     O12     1.258   1_554 A
C5     O14     1.260   .     A
C5     O15     1.260   1_554 A
C5     C62     1.475   1_544 S
C6     O16     1.267   .     A
C6     O17     1.271   1_565 A
C6     C116    1.482   1_455 S
C7     O19     1.260   .     A
C7     C24     1.475   .     S
C7     O18     1.261   1_556 A
O9     Y1      2.254   1_554 S
O9     C2      1.260   1_554 A
O10    Y0      2.275   1_655 S
O11    Y1      2.268   1_554 S
O11    C3      1.281   1_565 A
O12    Y0      2.259   1_556 S
O12    C4      1.258   1_556 A
O15    Y0      2.254   1_556 S
O15    C5      1.260   1_556 A
O16    Y1      2.244   1_455 S
O17    Y0      2.271   1_556 S
O17    C6      1.271   1_545 A
O18    Y1      2.255   1_554 S
O18    C7      1.261   1_554 A
C20    C21     1.405   .     A
C20    C25     1.406   1_655 A
C20    C26     1.504   1_655 S
C21    C22     1.397   .     A
C21    H27     1.084   .     S
C22    C23     1.398   .     A
C22    H28     1.081   .     S
C23    C24     1.404   .     A
C23    H29     1.082   .     S
C24    C25     1.404   1_655 A
C25    H30     1.083   .     S
C25    C20     1.406   1_455 A
C25    C24     1.404   1_455 A
C26    H32     1.113   .     S
C26    C20     1.504   1_455 S
C26    H31     1.114   1_455 S
C26    N55     1.465   1_455 S
H31    C26     1.114   1_655 S
C33    C38     1.404   .     A
C33    C34     1.403   1_455 A
C33    C35     1.505   1_455 S
C34    H44     1.084   .     S
C34    C33     1.403   1_655 A
C34    C40     1.406   1_655 A
C35    H45     1.112   .     S
C35    H52     1.113   .     S
C35    C33     1.505   1_655 S
C35    N56     1.464   1_655 S
C36    H48     1.113   .     S
C36    H51     1.114   .     S
C36    C37     1.525   1_554 S
C36    N56     1.463   1_655 S
C37    C47     1.527   .     S
C37    H50     1.111   .     S
C37    C36     1.525   1_556 S
C37    H49     1.112   1_655 S
C38    C39     1.398   .     A
C38    H41     1.081   .     S
C39    H42     1.080   .     S
C39    C57     1.398   .     A
C40    C57     1.403   .     A
C40    C34     1.406   1_455 A
H43    C57     1.083   .     S
C46    C47     1.523   .     S
C46    H54     1.114   .     S
C46    N55     1.462   .     S
C46    H53     1.113   1_655 S
H49    C37     1.112   1_455 S
H53    C46     1.113   1_455 S
N55    C26     1.465   1_655 S
N56    C35     1.464   1_455 S
N56    C36     1.463   1_455 S
C58    C59     1.403   .     A
C58    C63     1.405   .     A
C58    C64     1.503   .     S
C59    C60     1.397   .     A
C59    H65     1.084   .     S
C60    C61     1.399   .     A
C60    H66     1.083   .     S
C61    C62     1.404   .     A
C61    H67     1.082   .     S
C62    C63     1.404   .     A
C62    C5      1.475   1_566 S
C63    H68     1.084   1_565 S
C64    H69     1.112   .     S
C64    N93     1.465   .     S
C64    H70     1.114   1_565 S
H68    C63     1.084   1_545 S
H70    C64     1.114   1_545 S
C71    C76     1.404   .     A
C71    C72     1.404   1_545 A
C71    C73     1.502   1_545 S
C72    C71     1.404   1_565 A
C72    C78     1.405   1_565 A
C72    H82     1.084   1_554 S
C73    H90     1.114   .     S
C73    C71     1.502   1_565 S
C73    H83     1.112   1_565 S
C73    N94     1.463   1_565 S
C74    H86     1.115   .     S
C74    H89     1.113   .     S
C74    C75     1.524   1_554 S
C74    N94     1.463   1_565 S
C75    C85     1.525   .     S
C75    H88     1.112   .     S
C75    C74     1.524   1_556 S
C75    H87     1.112   1_565 S
C76    C77     1.397   .     A
C76    H79     1.084   .     S
C77    H80     1.082   .     S
C77    C95     1.398   .     A
C78    C95     1.405   .     A
C78    C72     1.405   1_545 A
C78    C2      1.474   1_544 S
H81    C95     1.082   .     S
H82    C72     1.084   1_556 S
H83    C73     1.112   1_545 S
C84    C85     1.523   .     S
C84    H92     1.113   .     S
C84    N93     1.462   .     S
C84    H91     1.113   1_565 S
H87    C75     1.112   1_545 S
H91    C84     1.113   1_545 S
N94    C73     1.463   1_545 S
N94    C74     1.463   1_545 S
C96    C97     1.402   .     A
C96    C101    1.404   1_455 A
C96    C102    1.503   1_455 S
C97    C98     1.396   .     A
C97    H103    1.083   .     S
C98    C99     1.398   .     A
C98    H104    1.080   .     S
C99    C100    1.403   .     A
C99    H105    1.073   .     S
C100   C101    1.408   1_455 A
C100   C3      1.484   1_455 S
C101   H106    1.083   .     S
C101   C96     1.404   1_655 A
C101   C100    1.408   1_655 A
C102   H107    1.111   .     S
C102   H108    1.114   .     S
C102   C96     1.503   1_655 S
C102   N131    1.464   1_655 S
C109   C110    1.408   .     A
C109   C111    1.504   .     S
C109   C114    1.403   1_455 A
C110   H120    1.083   .     S
C110   C116    1.409   1_455 A
C111   H121    1.112   .     S
C111   H128    1.113   .     S
C111   N132    1.462   .     S
C112   H124    1.113   .     S
C112   H127    1.112   .     S
C112   N132    1.463   .     S
C112   C113    1.524   1_465 S
C113   H125    1.112   .     S
C113   H126    1.112   .     S
C113   C112    1.524   1_645 S
C113   C123    1.527   1_645 S
C114   C115    1.396   .     A
C114   H117    1.084   .     S
C114   C109    1.403   1_655 A
C115   H118    1.082   .     S
C115   C133    1.395   .     A
C116   C133    1.400   .     A
C116   C110    1.409   1_655 A
C116   C6      1.482   1_655 S
H119   C133    1.071   .     S
C122   H129    1.113   .     S
C122   H130    1.113   .     S
C122   C123    1.523   1_645 S
C122   N131    1.463   1_655 S
C123   C113    1.527   1_465 S
C123   C122    1.523   1_465 S
N131   C102    1.464   1_455 S
N131   C122    1.463   1_455 S
