data_pcu+N205+E1
_audit_creation_date              2023-11-17
_audit_creation_method            'Materials Studio'
_symmetry_space_group_name_H-M    'P1'
_symmetry_Int_Tables_number       1
_symmetry_cell_setting            triclinic
loop_
_symmetry_equiv_pos_as_xyz
  x,y,z
_cell_length_a                    21.6708
_cell_length_b                    23.6140
_cell_length_c                    17.3752
_cell_angle_alpha                 104.0562
_cell_angle_beta                  130.1373
_cell_angle_gamma                 95.3678
loop_
_atom_site_label
_atom_site_type_symbol
_atom_site_fract_x
_atom_site_fract_y
_atom_site_fract_z
_atom_site_U_iso_or_equiv
_atom_site_adp_type
_atom_site_occupancy
Y0     Y     0.07383   0.10452   0.02903   0.00000  Uiso   1.00
Y1     Y     0.91563   0.91045   0.97165   0.00000  Uiso   1.00
C2     C     0.79869   0.93502   0.97660   0.00000  Uiso   1.00
C3     C     1.06360   0.03941   0.15767   0.00000  Uiso   1.00
C4     C     0.05365   0.21487   0.02209   0.00000  Uiso   1.00
C5     C     0.18999   0.07830   0.02363   0.00000  Uiso   1.00
C6     C    -0.07490   0.97608   0.84270   0.00000  Uiso   1.00
C7     C     0.93883   0.80104   0.98075   0.00000  Uiso   1.00
O8     O     0.78096   0.90855   0.88907   0.00000  Uiso   1.00
O9     O     0.87671   0.94876   0.06090   0.00000  Uiso   1.00
O10    O     1.09373   0.09263   0.16811   0.00000  Uiso   1.00
O11    O     1.03706   0.99189   0.07749   0.00000  Uiso   1.00
O12    O     0.00851   0.16472   0.93822   0.00000  Uiso   1.00
O13    O     0.10901   0.20775   0.10958   0.00000  Uiso   1.00
O14    O     0.20780   0.10443   0.11132   0.00000  Uiso   1.00
O15    O     0.11230   0.06581   0.93936   0.00000  Uiso   1.00
O16    O    -0.10479   0.92283   0.83248   0.00000  Uiso   1.00
O17    O    -0.04839   0.02367   0.92277   0.00000  Uiso   1.00
O18    O     0.98282   0.85132   0.06404   0.00000  Uiso   1.00
O19    O     0.88306   0.80755   0.89273   0.00000  Uiso   1.00
C20    C     0.97498   0.62660  -0.00534   0.00000  Uiso   1.00
C21    C     0.91187   0.63049   0.89328   0.00000  Uiso   1.00
C22    C     0.90028   0.68727   0.88888   0.00000  Uiso   1.00
C23    C     0.95132   0.74120  -0.01439   0.00000  Uiso   1.00
C24    C     1.01425   0.73743   0.08693   0.00000  Uiso   1.00
C25    C     1.02597   0.68070   0.09145   0.00000  Uiso   1.00
C26    C     0.98738   0.56629  -0.00074   0.00000  Uiso   1.00
C27    C     1.00292   0.54943   0.08110   0.00000  Uiso   1.00
C28    C     1.01393   0.49247   0.08488   0.00000  Uiso   1.00
C29    C     1.00980   0.45111   0.00705   0.00000  Uiso   1.00
C30    C     0.99466   0.46813   0.92555   0.00000  Uiso   1.00
C31    C     0.98376   0.52512   0.92186   0.00000  Uiso   1.00
C32    C     1.02128   0.39048   0.01090   0.00000  Uiso   1.00
C33    C     0.97024   0.33670   0.91358   0.00000  Uiso   1.00
C34    C     0.98086   0.27964   0.91727   0.00000  Uiso   1.00
C35    C     1.04271   0.27519   0.01827   0.00000  Uiso   1.00
C36    C     1.09389   0.32880   0.11556   0.00000  Uiso   1.00
C37    C     1.08334   0.38590   0.11196   0.00000  Uiso   1.00
H38    H     0.87086   0.58952   0.81745   0.00000  Uiso   1.00
H39    H    -0.14887   0.68890   0.80970   0.00000  Uiso   1.00
H40    H     1.05460   0.77841   0.16271   0.00000  Uiso   1.00
H41    H     1.07576   0.67932   0.17063   0.00000  Uiso   1.00
H42    H     1.00486   0.57976   0.14094   0.00000  Uiso   1.00
H43    H     1.02397   0.48025   0.14746   0.00000  Uiso   1.00
H44    H     0.99233   0.43769   0.86535   0.00000  Uiso   1.00
H45    H     0.97351   0.53731   0.85913   0.00000  Uiso   1.00
H46    H     0.92124   0.33857   0.83461   0.00000  Uiso   1.00
H47    H    -0.05947   0.23895   0.84108   0.00000  Uiso   1.00
H48    H     1.14220   0.32661   0.19450   0.00000  Uiso   1.00
H49    H     1.12437   0.42658   0.18818   0.00000  Uiso   1.00
C50    C     0.37168   0.03503   1.00980   0.00000  Uiso   1.00
C51    C     0.39806   0.06633   0.11149   0.00000  Uiso   1.00
C52    C     0.33902   0.08042   0.11618   0.00000  Uiso   1.00
C53    C     0.25261   0.06359   1.01935   0.00000  Uiso   1.00
C54    C     0.22625   1.03250   0.91787   0.00000  Uiso   1.00
C55    C     0.28500   1.01817   0.91295   0.00000  Uiso   1.00
C56    C     0.43430   0.02004   1.00473   0.00000  Uiso   1.00
C57    C     0.41212   0.96236   0.93045   0.00000  Uiso   1.00
C58    C     0.47118   0.94834   0.92581   0.00000  Uiso   1.00
C59    C     0.55361  -0.00833   0.99510   0.00000  Uiso   1.00
C60    C     0.57579   0.04935   0.06940   0.00000  Uiso   1.00
C61    C     0.51666   0.06338   0.07387   0.00000  Uiso   1.00
C62    C     0.61629  -0.02325   0.99010   0.00000  Uiso   1.00
C63    C     0.70303  -0.00608   0.08693   0.00000  Uiso   1.00
C64    C     0.76198  -0.01997   0.08212   0.00000  Uiso   1.00
C65    C     0.73569  -0.05106   0.98068   0.00000  Uiso   1.00
C66    C     0.64916   0.93163   0.88383   0.00000  Uiso   1.00
C67    C     0.59001   0.94538   0.88853   0.00000  Uiso   1.00
H68    H     0.46411   0.07919   0.18740   0.00000  Uiso   1.00
H69    H     0.36094   0.10443   0.19549   0.00000  Uiso   1.00
H70    H     0.15994   1.01915   0.84207   0.00000  Uiso   1.00
H71    H     0.26291   0.99471   0.83339   0.00000  Uiso   1.00
H72    H     0.34961   0.92765   0.87733   0.00000  Uiso   1.00
H73    H     0.45267   0.90315   0.86895   0.00000  Uiso   1.00
H74    H     0.63838   0.08406   0.12276   0.00000  Uiso   1.00
H75    H     0.53520   0.10857   0.13079   0.00000  Uiso   1.00
H76    H     0.72510   0.01740   0.16650   0.00000  Uiso   1.00
H77    H     0.82836  -0.00630   0.15795   0.00000  Uiso   1.00
H78    H     0.62732   0.90767   0.80454   0.00000  Uiso   1.00
H79    H     0.52384   0.93219   0.81247   0.00000  Uiso   1.00
C80    C     0.02714   0.02235   0.36742   0.00000  Uiso   1.00
C81    C     1.01907   0.07370   0.33843   0.00000  Uiso   1.00
C82    C     1.03266   0.07982   0.27196   0.00000  Uiso   1.00
C83    C     0.05367   0.03442   0.23228   0.00000  Uiso   1.00
C84    C     0.06429   0.98413   0.26366   0.00000  Uiso   1.00
C85    C     0.05074   0.97792   0.33016   0.00000  Uiso   1.00
C86    C     0.01028   0.01490   0.43540   0.00000  Uiso   1.00
C87    C     0.06266   0.99346   0.51836   0.00000  Uiso   1.00
C88    C     0.04659   0.98617   0.58201   0.00000  Uiso   1.00
C89    C    -0.02216   0.00026   0.56430   0.00000  Uiso   1.00
C90    C     0.92536   0.02163   0.48124   0.00000  Uiso   1.00
C91    C     0.94145   0.02893   0.41760   0.00000  Uiso   1.00
C92    C    -0.03873  -0.00700   0.63265   0.00000  Uiso   1.00
C93    C     0.93828   0.03768   0.67052   0.00000  Uiso   1.00
C94    C     0.92476   0.03153   0.73706   0.00000  Uiso   1.00
C95    C    -0.06513  -0.01896   0.76793   0.00000  Uiso   1.00
C96    C    -0.04468   0.93542   0.72767   0.00000  Uiso   1.00
C97    C    -0.03107   0.94152   0.66124   0.00000  Uiso   1.00
H98    H     1.00235   0.10920   0.36726   0.00000  Uiso   1.00
H99    H     1.02482   0.11933   0.24946   0.00000  Uiso   1.00
H100   H     0.08315   0.94975   0.23680   0.00000  Uiso   1.00
H101   H     0.05715   0.93774   0.35068   0.00000  Uiso   1.00
H102   H     0.11718   0.98341   0.53554   0.00000  Uiso   1.00
H103   H     0.08883   0.97037   0.64622   0.00000  Uiso   1.00
H104   H     0.87110   0.03193   0.46445   0.00000  Uiso   1.00
H105   H     0.89922   0.04475   0.35340   0.00000  Uiso   1.00
H106   H     0.93219   0.07796   0.65028   0.00000  Uiso   1.00
H107   H     0.90623   0.06608   0.76424   0.00000  Uiso   1.00
H108   H    -0.03724   0.89576   0.74975   0.00000  Uiso   1.00
H109   H    -0.01481   0.90584   0.63191   0.00000  Uiso   1.00
loop_
_geom_bond_atom_site_label_1
_geom_bond_atom_site_label_2
_geom_bond_distance
_geom_bond_site_symmetry_2
_ccdc_geom_bond_type
Y0     O13     2.259   .     S
Y0     O14     2.263   .     S
Y0     O10     2.261   1_455 S
Y0     O12     2.259   1_554 S
Y0     O15     2.254   1_554 S
Y0     O17     2.260   1_554 S
Y1     O8      2.264   .     S
Y1     O19     2.257   .     S
Y1     O9      2.254   1_556 S
Y1     O11     2.259   1_556 S
Y1     O16     2.262   1_655 S
Y1     O18     2.259   1_556 S
C2     O8      1.261   .     A
C2     O9      1.258   1_556 A
C2     C65     1.475   1_565 S
C3     O10     1.273   .     A
C3     O11     1.272   1_545 A
C3     C83     1.473   1_655 S
C4     O13     1.261   .     A
C4     O12     1.261   1_554 A
C4     C35     1.476   1_455 S
C5     O14     1.262   .     A
C5     O15     1.259   1_554 A
C5     C53     1.474   1_554 S
C6     O16     1.274   .     A
C6     O17     1.272   1_565 A
C6     C95     1.473   1_565 S
C7     O19     1.261   .     A
C7     O18     1.260   1_556 A
C7     C23     1.475   1_556 S
O9     Y1      2.254   1_554 S
O9     C2      1.258   1_554 A
O10    Y0      2.261   1_655 S
O11    Y1      2.259   1_554 S
O11    C3      1.272   1_565 A
O12    Y0      2.259   1_556 S
O12    C4      1.261   1_556 A
O15    Y0      2.254   1_556 S
O15    C5      1.259   1_556 A
O16    Y1      2.262   1_455 S
O17    Y0      2.260   1_556 S
O17    C6      1.272   1_545 A
O18    Y1      2.259   1_554 S
O18    C7      1.260   1_554 A
C20    C25     1.406   .     A
C20    C26     1.485   .     S
C20    C21     1.406   1_554 A
C21    C22     1.398   .     A
C21    H38     1.083   .     S
C21    C20     1.406   1_556 A
C22    C23     1.404   1_556 A
C22    H39     1.083   1_655 S
C23    C24     1.404   .     A
C23    C22     1.404   1_554 A
C23    C7      1.475   1_554 S
C24    C25     1.398   .     A
C24    H40     1.083   .     S
C25    H41     1.083   .     S
C26    C27     1.406   .     A
C26    C31     1.405   1_554 A
C27    C28     1.398   .     A
C27    H42     1.083   .     S
C28    C29     1.406   .     A
C28    H43     1.083   .     S
C29    C32     1.486   .     S
C29    C30     1.406   1_554 A
C30    C31     1.398   .     A
C30    H44     1.083   .     S
C30    C29     1.406   1_556 A
C31    H45     1.083   .     S
C31    C26     1.405   1_556 A
C32    C37     1.407   .     A
C32    C33     1.407   1_554 A
C33    C34     1.398   .     A
C33    H46     1.083   .     S
C33    C32     1.407   1_556 A
C34    C35     1.404   1_556 A
C34    H47     1.083   1_655 S
C35    C36     1.404   .     A
C35    C34     1.404   1_554 A
C35    C4      1.476   1_655 S
C36    C37     1.398   .     A
C36    H48     1.083   .     S
C37    H49     1.082   .     S
H39    C22     1.083   1_455 S
H47    C34     1.083   1_455 S
C50    C56     1.484   .     S
C50    C51     1.407   1_556 A
C50    C55     1.406   1_545 A
C51    C52     1.398   .     A
C51    H68     1.082   .     S
C51    C50     1.407   1_554 A
C52    H69     1.083   .     S
C52    C53     1.403   1_554 A
C53    C52     1.403   1_556 A
C53    C54     1.403   1_545 A
C53    C5      1.474   1_556 S
C54    C55     1.396   .     A
C54    H70     1.083   .     S
C54    C53     1.403   1_565 A
C55    H71     1.083   .     S
C55    C50     1.406   1_565 A
C56    C57     1.406   1_545 A
C56    C61     1.405   1_556 A
C57    C58     1.398   .     A
C57    H72     1.082   .     S
C57    C56     1.406   1_565 A
C58    H73     1.083   .     S
C58    C59     1.405   1_565 A
C59    C62     1.485   .     S
C59    C58     1.405   1_545 A
C59    C60     1.406   1_556 A
C60    C61     1.397   .     A
C60    H74     1.083   .     S
C60    C59     1.406   1_554 A
C61    H75     1.083   .     S
C61    C56     1.405   1_554 A
C62    C63     1.406   1_556 A
C62    C67     1.406   1_545 A
C63    C64     1.396   .     A
C63    H76     1.083   .     S
C63    C62     1.406   1_554 A
C64    H77     1.083   .     S
C64    C65     1.403   1_554 A
C65    C64     1.403   1_556 A
C65    C66     1.403   1_545 A
C65    C2      1.475   1_545 S
C66    C67     1.398   .     A
C66    H78     1.083   .     S
C66    C65     1.403   1_565 A
C67    H79     1.083   .     S
C67    C62     1.406   1_565 A
C80    C86     1.485   .     S
C80    C81     1.406   1_455 A
C80    C85     1.407   1_545 A
C81    C82     1.397   .     A
C81    H98     1.083   .     S
C81    C80     1.406   1_655 A
C82    H99     1.083   .     S
C82    C83     1.403   1_655 A
C83    C82     1.403   1_455 A
C83    C84     1.402   1_545 A
C83    C3      1.473   1_455 S
C84    C85     1.398   .     A
C84    H100    1.081   .     S
C84    C83     1.402   1_565 A
C85    H101    1.083   .     S
C85    C80     1.407   1_565 A
C86    C87     1.405   1_545 A
C86    C91     1.406   1_455 A
C87    C88     1.397   .     A
C87    H102    1.083   .     S
C87    C86     1.405   1_565 A
C88    H103    1.082   .     S
C88    C89     1.406   1_565 A
C89    C92     1.485   .     S
C89    C88     1.406   1_545 A
C89    C90     1.406   1_455 A
C90    C91     1.397   .     A
C90    H104    1.083   .     S
C90    C89     1.406   1_655 A
C91    H105    1.082   .     S
C91    C86     1.406   1_655 A
C92    C93     1.407   1_455 A
C92    C97     1.406   1_545 A
C93    C94     1.398   .     A
C93    H106    1.083   .     S
C93    C92     1.407   1_655 A
C94    H107    1.081   .     S
C94    C95     1.402   1_655 A
C95    C94     1.402   1_455 A
C95    C96     1.403   1_545 A
C95    C6      1.473   1_545 S
C96    C97     1.397   .     A
C96    H108    1.083   .     S
C96    C95     1.403   1_565 A
C97    H109    1.083   .     S
C97    C92     1.406   1_565 A
