data_pcu+N155+E70
_audit_creation_date              2023-11-17
_audit_creation_method            'Materials Studio'
_symmetry_space_group_name_H-M    'P1'
_symmetry_Int_Tables_number       1
_symmetry_cell_setting            triclinic
loop_
_symmetry_equiv_pos_as_xyz
  x,y,z
_cell_length_a                    10.0855
_cell_length_b                    10.5154
_cell_length_c                    12.9921
_cell_angle_alpha                 89.8412
_cell_angle_beta                  83.0922
_cell_angle_gamma                 92.5287
loop_
_atom_site_label
_atom_site_type_symbol
_atom_site_fract_x
_atom_site_fract_y
_atom_site_fract_z
_atom_site_U_iso_or_equiv
_atom_site_adp_type
_atom_site_occupancy
C0     C     0.00984   0.04373   0.31917   0.00000  Uiso   1.00
Ho1    Ho    0.04508   0.02921   0.11833   0.00000  Uiso   1.00
C2     C     1.00844   1.04350   0.70307   0.00000  Uiso   1.00
Ho3    Ho    1.04502   1.02903   0.89776   0.00000  Uiso   1.00
O4     O     0.12752   0.03828   0.26931   0.00000  Uiso   1.00
O5     O     0.91650   0.03314   0.26196   0.00000  Uiso   1.00
O6     O     0.23987   0.03223   0.16461   0.00000  Uiso   1.00
O7     O     0.21347   1.02591   0.99580   0.00000  Uiso   1.00
C8     C     0.29771   0.02210   1.07623   0.00000  Uiso   1.00
C9     C     0.78783   1.01424  -0.03321   0.00000  Uiso   1.00
O10    O     0.03611   0.82223   0.09925   0.00000  Uiso   1.00
O11    O     1.03469   0.81928   0.92146   0.00000  Uiso   1.00
O12    O     0.91436   1.03290   0.77794   0.00000  Uiso   1.00
O13    O     0.12572   1.03810   0.73123   0.00000  Uiso   1.00
O14    O     0.82646   1.02275   0.87373   0.00000  Uiso   1.00
O15    O     0.89291   0.02096   0.02425   0.00000  Uiso   1.00
O16    O     1.04232   0.23792   0.92048   0.00000  Uiso   1.00
O17    O     0.04760   0.23526   0.09638   0.00000  Uiso   1.00
C18    C     1.03496   0.29290   1.01024   0.00000  Uiso   1.00
C19    C     0.02575   0.76361   0.01222   0.00000  Uiso   1.00
N20    N     0.05255   0.52964   0.98740   0.00000  Uiso   1.00
H21    H     0.79458   0.66319   0.11845   0.00000  Uiso   1.00
C22    C     0.98080   0.62923   0.02222   0.00000  Uiso   1.00
C23    C     0.86227   0.59560   0.08166   0.00000  Uiso   1.00
C24    C     0.98432   0.42082   0.02130   0.00000  Uiso   1.00
S25    S     0.83424   0.43689   0.09607   0.00000  Uiso   1.00
N26    N     0.53717   0.02598   0.99271   0.00000  Uiso   1.00
H27    H     0.41158  -0.13277   0.20531   0.00000  Uiso   1.00
C28    C     0.43729  -0.01583   0.06508   0.00000  Uiso   1.00
C29    C     0.47786  -0.09213   0.14066   0.00000  Uiso   1.00
C30    C     0.65311   0.97958   0.01684   0.00000  Uiso   1.00
S31    S     0.64306   0.88681   0.12621   0.00000  Uiso   1.00
N32    N     1.04521   1.03963   0.50797   0.00000  Uiso   1.00
H33    H    -0.21073   0.15999   0.40971   0.00000  Uiso   1.00
C34    C    -0.02387   0.07201   0.42979   0.00000  Uiso   1.00
C35    C    -0.14223   0.12866   0.46167   0.00000  Uiso   1.00
C36    C     0.97479   0.07215   0.59892   0.00000  Uiso   1.00
S37    S    -0.17371   0.14288   0.59104   0.00000  Uiso   1.00
loop_
_geom_bond_atom_site_label_1
_geom_bond_atom_site_label_2
_geom_bond_distance
_geom_bond_site_symmetry_2
_ccdc_geom_bond_type
C0     O4      1.286   .     A
C0     C34     1.471   .     S
C0     O5      1.269   1_455 A
Ho1    O4      2.221   .     S
Ho1    O6      2.122   .     S
Ho1    O17     2.183   .     S
Ho1    O5      2.142   1_455 S
Ho1    O7      2.185   1_544 S
Ho1    O10     2.190   1_545 S
Ho1    O15     2.073   1_455 S
C2     O12     1.276   .     A
C2     O13     1.283   1_655 A
C2     C36     1.468   1_565 S
Ho3    O11     2.222   .     S
Ho3    O12     2.158   .     S
Ho3    O14     2.261   .     S
Ho3    O7      2.244   1_655 S
Ho3    O13     2.218   1_655 S
Ho3    O15     2.108   1_566 S
Ho3    O16     2.218   1_565 S
O5     C0      1.269   1_655 A
O5     Ho1     2.142   1_655 S
O6     C8      1.231   1_554 D
O7     Ho1     2.185   1_566 S
O7     Ho3     2.244   1_455 S
O7     C8      1.425   1_565 S
C8     O6      1.231   1_556 D
C8     O7      1.425   1_545 S
C8     C28     1.471   1_556 S
C9     C30     1.464   .     S
C9     O14     1.227   1_554 D
C9     O15     1.367   1_565 S
O10    C19     1.302   .     A
O10    Ho1     2.190   1_565 S
O11    C19     1.307   1_656 A
O13    C2      1.283   1_455 A
O13    Ho3     2.218   1_455 S
O14    C9      1.227   1_556 D
O15    Ho1     2.073   1_655 S
O15    Ho3     2.108   1_544 S
O15    C9      1.367   1_545 S
O16    C18     1.299   .     A
O16    Ho3     2.218   1_545 S
O17    C18     1.294   1_454 A
C18    O17     1.294   1_656 A
C18    C24     1.461   1_556 S
C19    O11     1.307   1_454 A
C19    C22     1.465   1_455 S
N20    C22     1.348   1_456 A
N20    C24     1.353   1_456 A
H21    C23     1.080   .     S
C22    C23     1.375   .     A
C22    N20     1.348   1_654 A
C22    C19     1.465   1_655 S
C23    S25     1.686   .     A
C24    S25     1.713   .     A
C24    N20     1.353   1_654 A
C24    C18     1.461   1_554 S
N26    C28     1.350   1_556 A
N26    C30     1.357   1_546 A
H27    C29     1.083   .     S
C28    C29     1.377   .     A
C28    N26     1.350   1_554 A
C28    C8      1.471   1_554 S
C29    S31     1.679   1_545 A
C30    S31     1.712   .     A
C30    N26     1.357   1_564 A
S31    C29     1.679   1_565 A
N32    C34     1.350   1_665 A
N32    C36     1.356   1_565 A
H33    C35     1.083   .     S
C34    C35     1.377   .     A
C34    N32     1.350   1_445 A
C35    S37     1.681   .     A
C36    N32     1.356   1_545 A
C36    S37     1.715   1_655 A
C36    C2      1.468   1_545 S
S37    C36     1.715   1_455 A
