data_pcu+N173+E14
_audit_creation_date              2023-11-17
_audit_creation_method            'Materials Studio'
_symmetry_space_group_name_H-M    'P1'
_symmetry_Int_Tables_number       1
_symmetry_cell_setting            triclinic
loop_
_symmetry_equiv_pos_as_xyz
  x,y,z
_cell_length_a                    11.5227
_cell_length_b                    12.9602
_cell_length_c                    11.5227
_cell_angle_alpha                 104.9691
_cell_angle_beta                  90.1833
_cell_angle_gamma                 75.5994
loop_
_atom_site_label
_atom_site_type_symbol
_atom_site_fract_x
_atom_site_fract_y
_atom_site_fract_z
_atom_site_U_iso_or_equiv
_atom_site_adp_type
_atom_site_occupancy
Gd0    Gd    0.04541   0.90471   0.98926   0.00000  Uiso   1.00
Gd1    Gd    0.99097   0.09493   0.04689   0.00000  Uiso   1.00
O2     O     0.79814   0.09565   0.03306   0.00000  Uiso   1.00
O3     O     0.84730   0.91439   1.00192   0.00000  Uiso   1.00
O4     O     1.03310   0.90353   0.79647   0.00000  Uiso   1.00
O5     O     0.00501   0.08461   0.84834   0.00000  Uiso   1.00
O6     O     0.09669   0.71953   0.93716   0.00000  Uiso   1.00
O7     O     0.91300   0.80136   0.97895   0.00000  Uiso   1.00
O8     O     0.23537   0.91502   0.97871   0.00000  Uiso   1.00
C9     C    -0.00824   0.70922   0.95074   0.00000  Uiso   1.00
O10    O     0.18400   0.09358   0.06320   0.00000  Uiso   1.00
O11    O     0.05778   0.90587   0.18259   0.00000  Uiso   1.00
C12    C     1.01902  -0.00663   0.76655   0.00000  Uiso   1.00
O13    O     0.98057   0.08534   0.23676   0.00000  Uiso   1.00
O14    O     0.98273   0.19732   0.91477   0.00000  Uiso   1.00
O15    O    -0.05977   0.28023   0.09884   0.00000  Uiso   1.00
C16    C     0.76686   0.00585   0.01726   0.00000  Uiso   1.00
C17    C     0.95413   0.28989  -0.00626   0.00000  Uiso   1.00
C18    C     0.01922   0.99494   0.26499   0.00000  Uiso   1.00
C19    C     0.26499   1.00512   1.01959   0.00000  Uiso   1.00
C20    C    -0.11971   0.59683   1.02781   0.00000  Uiso   1.00
C21    C    -0.03413   0.60260   0.94493   0.00000  Uiso   1.00
C22    C     1.03732   0.50463  -0.13114   0.00000  Uiso   1.00
C23    C     1.02604   0.40209  -0.12173   0.00000  Uiso   1.00
C24    C    -0.05289   0.39639   0.96755   0.00000  Uiso   1.00
C25    C    -0.12719   0.49433   1.04086   0.00000  Uiso   1.00
H26    H    -0.17454   0.67157   1.08840   0.00000  Uiso   1.00
H27    H     1.10477   0.50735  -0.19474   0.00000  Uiso   1.00
H28    H     1.08475   0.32736  -0.17859   0.00000  Uiso   1.00
H29    H    -0.18841   0.49156   1.11048   0.00000  Uiso   1.00
C30    C     0.48308   0.90615   0.98613   0.00000  Uiso   1.00
C31    C     0.39314   0.00600   1.01850   0.00000  Uiso   1.00
C32    C     0.42700   0.10615   0.04995   0.00000  Uiso   1.00
C33    C     0.54836   0.10632   0.04886   0.00000  Uiso   1.00
C34    C     0.63826   0.00636   1.01692   0.00000  Uiso   1.00
C35    C     0.60420   0.90633   0.98559   0.00000  Uiso   1.00
H36    H     0.45998   0.82752   0.96216   0.00000  Uiso   1.00
H37    H     0.35974   0.18443   0.07531   0.00000  Uiso   1.00
H38    H     0.57178   0.18467   0.07402   0.00000  Uiso   1.00
H39    H     0.67107   0.82781   0.96059   0.00000  Uiso   1.00
C40    C     1.04591  -0.10638   0.42557   0.00000  Uiso   1.00
C41    C     1.01913  -0.00610   0.39307   0.00000  Uiso   1.00
C42    C    -0.00812   1.09370   0.48427   0.00000  Uiso   1.00
C43    C    -0.00816   1.09336   0.60532   0.00000  Uiso   1.00
C44    C     1.01881  -0.00681   0.63805   0.00000  Uiso   1.00
C45    C     1.04557  -0.10673   0.54686   0.00000  Uiso   1.00
H46    H     1.06708  -0.18464   0.35729   0.00000  Uiso   1.00
H47    H    -0.02854   1.17233   0.46214   0.00000  Uiso   1.00
H48    H    -0.02942   1.17181   0.67316   0.00000  Uiso   1.00
H49    H     1.06692  -0.18526   0.56917   0.00000  Uiso   1.00
loop_
_geom_bond_atom_site_label_1
_geom_bond_atom_site_label_2
_geom_bond_distance
_geom_bond_site_symmetry_2
_ccdc_geom_bond_type
Gd0    O6      2.241   .     S
Gd0    O8      2.232   .     S
Gd0    O3      2.258   1_455 S
Gd0    O4      2.222   1_455 S
Gd0    O7      2.251   1_455 S
Gd0    O11     2.228   1_556 S
Gd1    O2      2.225   .     S
Gd1    O13     2.228   .     S
Gd1    O5      2.261   1_654 S
Gd1    O10     2.228   1_655 S
Gd1    O14     2.251   1_554 S
Gd1    O15     2.243   1_655 S
O2     C16     1.271   .     A
O3     Gd0     2.258   1_655 S
O3     C16     1.281   1_566 A
O4     Gd0     2.222   1_655 S
O4     C12     1.270   1_565 A
O5     Gd1     2.261   1_456 S
O5     C12     1.282   1_455 A
O6     C9      1.263   .     A
O7     Gd0     2.251   1_655 S
O7     C9      1.272   1_655 A
O8     C19     1.271   .     A
C9     C21     1.470   .     S
C9     O7      1.272   1_455 A
O10    Gd1     2.228   1_455 S
O10    C19     1.269   1_544 A
O11    C18     1.270   .     A
O11    Gd0     2.228   1_554 S
C12    C44     1.480   .     S
C12    O4      1.270   1_545 A
C12    O5      1.282   1_655 A
O13    C18     1.270   1_645 A
O14    Gd1     2.251   1_556 S
O14    C17     1.272   1_556 A
O15    Gd1     2.243   1_455 S
O15    C17     1.264   1_455 A
C16    O3      1.281   1_544 A
C16    C34     1.480   1_554 S
C17    O14     1.272   1_554 A
C17    O15     1.264   1_655 A
C17    C24     1.471   1_654 S
C18    O13     1.270   1_465 A
C18    C41     1.479   1_465 S
C19    O10     1.269   1_566 A
C19    C31     1.480   1_565 S
C20    C21     1.403   .     A
C20    C25     1.398   .     A
C20    H26     1.083   .     S
C21    C22     1.403   1_456 A
C22    C23     1.398   .     A
C22    H27     1.083   .     S
C22    C21     1.403   1_654 A
C23    H28     1.084   .     S
C23    C24     1.403   1_654 A
C24    C25     1.403   .     A
C24    C23     1.403   1_456 A
C24    C17     1.471   1_456 S
C25    H29     1.083   .     S
C30    C35     1.396   .     A
C30    H36     1.084   .     S
C30    C31     1.405   1_565 A
C31    C30     1.405   1_545 A
C31    C32     1.406   1_556 A
C31    C19     1.480   1_545 S
C32    C33     1.399   .     A
C32    H37     1.083   .     S
C32    C31     1.406   1_554 A
C33    H38     1.082   .     S
C33    C34     1.405   1_554 A
C34    C33     1.405   1_556 A
C34    C35     1.405   1_545 A
C34    C16     1.480   1_556 S
C35    H39     1.083   .     S
C35    C34     1.405   1_565 A
C40    C41     1.406   .     A
C40    C45     1.399   .     A
C40    H46     1.083   .     S
C41    C42     1.405   1_645 A
C41    C18     1.479   1_645 S
C42    C43     1.396   .     A
C42    H47     1.083   .     S
C42    C41     1.405   1_465 A
C43    H48     1.082   .     S
C43    C44     1.406   1_465 A
C44    C45     1.406   .     A
C44    C43     1.406   1_645 A
C45    H49     1.083   .     S
