data_pcu+N394+E14
_audit_creation_date              2023-11-17
_audit_creation_method            'Materials Studio'
_symmetry_space_group_name_H-M    'P1'
_symmetry_Int_Tables_number       1
_symmetry_cell_setting            triclinic
loop_
_symmetry_equiv_pos_as_xyz
  x,y,z
_cell_length_a                    14.3408
_cell_length_b                    11.5751
_cell_length_c                    10.0499
_cell_angle_alpha                 71.0829
_cell_angle_beta                  102.9443
_cell_angle_gamma                 89.2253
loop_
_atom_site_label
_atom_site_type_symbol
_atom_site_fract_x
_atom_site_fract_y
_atom_site_fract_z
_atom_site_U_iso_or_equiv
_atom_site_adp_type
_atom_site_occupancy
Pr0    Pr    0.11094   0.99835  -0.00334   0.00000  Uiso   1.00
Pr1    Pr    0.88925   0.00191   1.00348   0.00000  Uiso   1.00
O2     O     0.91923   0.19818   1.00193   0.00000  Uiso   1.00
O3     O     0.07971   0.19595  -0.00203   0.00000  Uiso   1.00
O4     O     0.23235   0.05239   0.88458   0.00000  Uiso   1.00
O5     O     0.26850   0.94576   0.11175   0.00000  Uiso   1.00
O6     O     1.02800   0.92343   0.16762   0.00000  Uiso   1.00
O7     O     0.12074   1.05825   0.19864   0.00000  Uiso   1.00
C8     C     0.93740   0.00554   0.75112   0.00000  Uiso   1.00
C9     C     0.99911   0.25034  -0.00201   0.00000  Uiso   1.00
C10    C     0.29858  -0.00071   0.99861   0.00000  Uiso   1.00
C11    C     0.70162   0.00098   0.00153   0.00000  Uiso   1.00
C12    C     0.00110   0.74988   1.00227   0.00000  Uiso   1.00
C13    C     0.06279   0.99459   0.24908   0.00000  Uiso   1.00
O14    O     0.08099   0.80201  -0.00160   0.00000  Uiso   1.00
O15    O     0.92048   0.80430   1.00217   0.00000  Uiso   1.00
O16    O     0.76784   0.94785   0.11556   0.00000  Uiso   1.00
O17    O     0.73170   0.05451   0.88840   0.00000  Uiso   1.00
O18    O    -0.02783   0.07677   0.83249   0.00000  Uiso   1.00
O19    O     0.87949  -0.05816   0.80163   0.00000  Uiso   1.00
C20    C     0.91736   0.55979   1.00842   0.00000  Uiso   1.00
C21    C     0.00076   0.62180   0.00201   0.00000  Uiso   1.00
C22    C     0.08349   0.56059  -0.00630   0.00000  Uiso   1.00
C23    C     0.08284   0.44043  -0.00817   0.00000  Uiso   1.00
C24    C    -0.00055   0.37841  -0.00173   0.00000  Uiso   1.00
C25    C     0.91672   0.43962   1.00658   0.00000  Uiso   1.00
H26    H     0.85229   0.60398   1.01489   0.00000  Uiso   1.00
H27    H     0.14895   0.60552  -0.01181   0.00000  Uiso   1.00
H28    H     0.14789   0.39626  -0.01470   0.00000  Uiso   1.00
H29    H     0.85126   0.39470   1.01208   0.00000  Uiso   1.00
C30    C     0.43096   0.06285   0.87287   0.00000  Uiso   1.00
C31    C     0.40164  -0.00025  -0.00059   0.00000  Uiso   1.00
C32    C     0.47165   0.93701   0.12661   0.00000  Uiso   1.00
C33    C     0.56923   0.93745   0.12728   0.00000  Uiso   1.00
C34    C     0.59855   0.00052   0.00073   0.00000  Uiso   1.00
C35    C     0.52854   0.06323   0.87353   0.00000  Uiso   1.00
H36    H     0.37847   0.11212   0.77335   0.00000  Uiso   1.00
H37    H     0.45102   0.88743   0.22562   0.00000  Uiso   1.00
H38    H     0.62171   0.88822   0.22681   0.00000  Uiso   1.00
H39    H     0.54918   0.11280   0.77452   0.00000  Uiso   1.00
C40    C     0.06693   1.07915   0.44947   0.00000  Uiso   1.00
C41    C     0.03168  -0.00335   0.37839   0.00000  Uiso   1.00
C42    C     0.96458  -0.08230   0.42982   0.00000  Uiso   1.00
C43    C     0.93331  -0.07908   0.55078   0.00000  Uiso   1.00
C44    C    -0.03147   0.00344   0.62183   0.00000  Uiso   1.00
C45    C     0.03564   1.08238   0.57041   0.00000  Uiso   1.00
H46    H     0.11838   1.14141   0.41123   0.00000  Uiso   1.00
H47    H     0.93626  -0.14648   0.37648   0.00000  Uiso   1.00
H48    H     0.88184  -0.14132   0.58899   0.00000  Uiso   1.00
H49    H     0.06395   1.14659   0.62372   0.00000  Uiso   1.00
loop_
_geom_bond_atom_site_label_1
_geom_bond_atom_site_label_2
_geom_bond_distance
_geom_bond_site_symmetry_2
_ccdc_geom_bond_type
Pr0    O5      2.269   .     S
Pr0    O7      2.326   .     S
Pr0    O14     2.314   .     S
Pr0    O3      2.330   1_565 S
Pr0    O4      2.268   1_564 S
Pr0    O6      2.258   1_455 S
Pr0    O18     2.240   1_564 S
Pr1    O2      2.314   .     S
Pr1    O17     2.269   .     S
Pr1    O19     2.325   .     S
Pr1    O6      2.239   1_546 S
Pr1    O15     2.330   1_545 S
Pr1    O16     2.268   1_546 S
Pr1    O18     2.257   1_655 S
O2     C9      1.305   1_556 A
O3     Pr0     2.330   1_545 S
O3     C9      1.309   1_455 A
O4     C10     1.278   .     A
O4     Pr0     2.268   1_546 S
O5     C10     1.278   1_564 A
O6     Pr0     2.258   1_655 S
O6     Pr1     2.239   1_564 S
O6     C13     1.365   1_655 S
O7     C13     1.206   .     D
C8     O19     1.206   .     D
C8     O18     1.365   1_655 S
C8     C44     1.472   1_655 S
C9     O2      1.305   1_554 A
C9     O3      1.309   1_655 A
C9     C24     1.483   1_655 S
C10    O5      1.278   1_546 A
C10    C31     1.476   1_556 S
C11    C34     1.476   .     S
C11    O16     1.278   1_545 A
C11    O17     1.278   1_554 A
C12    O14     1.305   1_556 A
C12    O15     1.309   1_455 A
C12    C21     1.483   1_556 S
C13    O6      1.365   1_455 S
C13    C41     1.472   1_565 S
O14    C12     1.305   1_554 A
O15    Pr1     2.330   1_565 S
O15    C12     1.309   1_655 A
O16    Pr1     2.268   1_564 S
O16    C11     1.278   1_565 A
O17    C11     1.278   1_556 A
O18    Pr0     2.240   1_546 S
O18    Pr1     2.257   1_455 S
O18    C8      1.365   1_455 S
C20    C25     1.397   .     A
C20    H26     1.083   .     S
C20    C21     1.406   1_656 A
C21    C22     1.406   .     A
C21    C20     1.406   1_454 A
C21    C12     1.483   1_554 S
C22    C23     1.397   .     A
C22    H27     1.083   .     S
C23    C24     1.406   .     A
C23    H28     1.083   .     S
C24    C25     1.406   1_454 A
C24    C9      1.483   1_455 S
C25    H29     1.083   .     S
C25    C24     1.406   1_656 A
C30    C35     1.398   .     A
C30    H36     1.083   .     S
C30    C31     1.405   1_556 A
C31    C30     1.405   1_554 A
C31    C32     1.405   1_545 A
C31    C10     1.476   1_554 S
C32    C33     1.398   .     A
C32    H37     1.083   .     S
C32    C31     1.405   1_565 A
C33    H38     1.083   .     S
C33    C34     1.405   1_565 A
C34    C33     1.405   1_545 A
C34    C35     1.405   1_554 A
C35    H39     1.083   .     S
C35    C34     1.405   1_556 A
C40    C45     1.398   .     A
C40    H46     1.083   .     S
C40    C41     1.404   1_565 A
C41    C40     1.404   1_545 A
C41    C42     1.403   1_455 A
C41    C13     1.472   1_545 S
C42    C43     1.398   .     A
C42    H47     1.083   .     S
C42    C41     1.403   1_655 A
C43    H48     1.083   .     S
C43    C44     1.404   1_655 A
C44    C43     1.404   1_455 A
C44    C45     1.403   1_545 A
C44    C8      1.472   1_455 S
C45    H49     1.083   .     S
C45    C44     1.403   1_565 A
