data_pcu+N205+E191
_audit_creation_date              2023-11-17
_audit_creation_method            'Materials Studio'
_symmetry_space_group_name_H-M    'P1'
_symmetry_Int_Tables_number       1
_symmetry_cell_setting            triclinic
loop_
_symmetry_equiv_pos_as_xyz
  x,y,z
_cell_length_a                    19.4817
_cell_length_b                    21.4432
_cell_length_c                    15.1917
_cell_angle_alpha                 105.2384
_cell_angle_beta                  128.9365
_cell_angle_gamma                 92.8650
loop_
_atom_site_label
_atom_site_type_symbol
_atom_site_fract_x
_atom_site_fract_y
_atom_site_fract_z
_atom_site_U_iso_or_equiv
_atom_site_adp_type
_atom_site_occupancy
Y0     Y     0.08380   0.10444   0.03166   0.00000  Uiso   1.00
Y1     Y     0.91663   0.89490   0.96825   0.00000  Uiso   1.00
C2     C     0.78782   0.92720   0.97614   0.00000  Uiso   1.00
C3     C     1.07162   0.03211   0.17581   0.00000  Uiso   1.00
C4     C     0.05672   0.22565   0.02232   0.00000  Uiso   1.00
C5     C     0.21371   0.07417   0.02478   0.00000  Uiso   1.00
C6     C    -0.07054   0.96670   0.82430   0.00000  Uiso   1.00
C7     C     0.94176   0.77324   0.97671   0.00000  Uiso   1.00
O8     O     0.77210   0.90161   0.87815   0.00000  Uiso   1.00
O9     O     0.86994   0.93590   0.06939   0.00000  Uiso   1.00
O10    O     1.10201   0.09022   0.18689   0.00000  Uiso   1.00
O11    O     1.04647   0.98084   0.08646   0.00000  Uiso   1.00
O12    O     0.01000   0.17129   0.92965   0.00000  Uiso   1.00
O13    O     0.11713   0.21712   0.12001   0.00000  Uiso   1.00
O14    O     0.22966   0.10140   0.12259   0.00000  Uiso   1.00
O15    O     0.13063   0.06247   0.93106   0.00000  Uiso   1.00
O16    O    -0.10101   0.90860   0.81314   0.00000  Uiso   1.00
O17    O    -0.04533   0.01792   0.91378   0.00000  Uiso   1.00
O18    O     0.98880   0.82747   0.06963   0.00000  Uiso   1.00
O19    O     0.88195   0.78211   0.87910   0.00000  Uiso   1.00
Ni20   Ni   -0.00226   0.49911  -0.00096   0.00000  Uiso   1.00
C21    C     0.95534   0.70681   0.98187   0.00000  Uiso   1.00
C22    C     0.90036   0.64836   0.87464   0.00000  Uiso   1.00
C23    C     0.91429   0.58597   0.88191   0.00000  Uiso   1.00
C24    C     0.03464   0.63763   0.09728   0.00000  Uiso   1.00
C25    C     0.02308   0.70101   0.09426   0.00000  Uiso   1.00
H26    H     0.92551   0.25258   0.82122   0.00000  Uiso   1.00
H27    H     0.15490   0.34874   0.21090   0.00000  Uiso   1.00
H28    H     0.12829   0.45857   0.19710   0.00000  Uiso   1.00
H29    H     0.90378   0.36448   0.81600   0.00000  Uiso   1.00
N30    N     0.01509   0.41640   0.00619   0.00000  Uiso   1.00
N31    N     0.98055   0.58187   0.99204   0.00000  Uiso   1.00
H32    H     0.84739   0.65092   0.78634   0.00000  Uiso   1.00
H33    H     0.87226   0.54067   0.79970   0.00000  Uiso   1.00
H34    H     0.08692   0.63280   0.18363   0.00000  Uiso   1.00
H35    H     0.06653   0.74497   0.17880   0.00000  Uiso   1.00
C36    C     0.04210   0.29185   0.01683   0.00000  Uiso   1.00
C37    C     0.09932   0.35075   0.12316   0.00000  Uiso   1.00
C38    C     0.08439   0.41290   0.11565   0.00000  Uiso   1.00
C39    C     0.95852   0.36015   0.90181   0.00000  Uiso   1.00
C40    C     0.97102   0.29695   0.90510   0.00000  Uiso   1.00
Ni41   Ni    0.50199   0.00238   0.00184   0.00000  Uiso   1.00
C42    C     0.28405   1.05741   0.01988   0.00000  Uiso   1.00
C43    C     0.37395   1.06695   0.12730   0.00000  Uiso   1.00
C44    C     0.43899   1.05007   0.11990   0.00000  Uiso   1.00
C45    C     0.32892   0.01526   0.90404   0.00000  Uiso   1.00
C46    C     0.26177   0.03143   0.90717   0.00000  Uiso   1.00
H47    H     0.81067   0.98079   0.17980   0.00000  Uiso   1.00
H48    H     0.60825  -0.08436   0.78605   0.00000  Uiso   1.00
H49    H     0.49466  -0.05283   0.80109   0.00000  Uiso   1.00
H50    H     0.69245   1.01037   0.18599   0.00000  Uiso   1.00
N51    N     0.58844  -0.02007   0.99399   0.00000  Uiso   1.00
N52    N     0.41538   1.02472   0.00942   0.00000  Uiso   1.00
H53    H     0.39361   1.08702   0.21582   0.00000  Uiso   1.00
H54    H     0.50839   1.05705   0.20219   0.00000  Uiso   1.00
H55    H     0.31234  -0.00472   0.81756   0.00000  Uiso   1.00
H56    H     0.19338   0.02399   0.82245   0.00000  Uiso   1.00
C57    C     0.71846  -0.05446   0.98195   0.00000  Uiso   1.00
C58    C     0.62853  -0.06367   0.87492   0.00000  Uiso   1.00
C59    C     0.56417  -0.04590   0.88312   0.00000  Uiso   1.00
C60    C     0.67517   0.98961   0.09912   0.00000  Uiso   1.00
C61    C     0.74178   0.97274   0.09524   0.00000  Uiso   1.00
Ni62   Ni    0.00019  -0.00069   0.49966   0.00000  Uiso   1.00
C63    C     1.05871   0.02582   0.25903   0.00000  Uiso   1.00
C64    C     1.07337   0.97070   0.29549   0.00000  Uiso   1.00
C65    C     1.05613   0.96398   0.36947   0.00000  Uiso   1.00
C66    C     0.01307   0.06552   0.37453   0.00000  Uiso   1.00
C67    C     0.02979   0.07432   0.30102   0.00000  Uiso   1.00
H68    H     0.98143   0.88066   0.72351   0.00000  Uiso   1.00
H69    H    -0.09608   0.06575   0.73389   0.00000  Uiso   1.00
H70    H    -0.06450   0.07798   0.60401   0.00000  Uiso   1.00
H71    H     1.01007   0.89617   0.59240   0.00000  Uiso   1.00
N72    N    -0.02487  -0.01192   0.59370   0.00000  Uiso   1.00
N73    N     1.02526   1.01055   0.40563   0.00000  Uiso   1.00
H74    H     1.09817   0.93352   0.26739   0.00000  Uiso   1.00
H75    H     1.06630   0.92122   0.39700   0.00000  Uiso   1.00
H76    H    -0.01085   0.10200   0.40557   0.00000  Uiso   1.00
H77    H     0.01817   0.11763   0.27486   0.00000  Uiso   1.00
C78    C    -0.05781  -0.02703   0.74088   0.00000  Uiso   1.00
C79    C    -0.07187   0.02835   0.70513   0.00000  Uiso   1.00
C80    C    -0.05478   0.03503   0.63100   0.00000  Uiso   1.00
C81    C     0.98675   0.93288   0.62413   0.00000  Uiso   1.00
C82    C     0.97026   0.92416   0.69791   0.00000  Uiso   1.00
loop_
_geom_bond_atom_site_label_1
_geom_bond_atom_site_label_2
_geom_bond_distance
_geom_bond_site_symmetry_2
_ccdc_geom_bond_type
Y0     O13     2.259   .     S
Y0     O14     2.263   .     S
Y0     O10     2.262   1_455 S
Y0     O12     2.257   1_554 S
Y0     O15     2.256   1_554 S
Y0     O17     2.259   1_554 S
Y1     O8      2.263   .     S
Y1     O19     2.259   .     S
Y1     O9      2.256   1_556 S
Y1     O11     2.259   1_556 S
Y1     O16     2.261   1_655 S
Y1     O18     2.256   1_556 S
C2     O8      1.262   .     A
C2     O9      1.258   1_556 A
C2     C57     1.474   1_565 S
C3     O10     1.274   .     A
C3     C63     1.472   .     S
C3     O11     1.272   1_545 A
C4     O13     1.261   .     A
C4     C36     1.475   .     S
C4     O12     1.261   1_554 A
C5     O14     1.261   .     A
C5     O15     1.259   1_554 A
C5     C42     1.475   1_545 S
C6     O16     1.274   .     A
C6     O17     1.272   1_565 A
C6     C78     1.472   1_565 S
C7     O19     1.262   .     A
C7     C21     1.475   .     S
C7     O18     1.261   1_556 A
O9     Y1      2.256   1_554 S
O9     C2      1.258   1_554 A
O10    Y0      2.262   1_655 S
O11    Y1      2.259   1_554 S
O11    C3      1.272   1_565 A
O12    Y0      2.257   1_556 S
O12    C4      1.261   1_556 A
O15    Y0      2.256   1_556 S
O15    C5      1.259   1_556 A
O16    Y1      2.261   1_455 S
O17    Y0      2.259   1_556 S
O17    C6      1.272   1_545 A
O18    Y1      2.256   1_554 S
O18    C7      1.261   1_554 A
Ni20   N30     1.840   .     S
Ni20   N31     1.840   1_454 S
C21    C22     1.404   .     A
C21    C25     1.403   1_656 A
C22    C23     1.397   .     A
C22    H32     1.082   .     S
C23    N31     1.359   .     A
C23    H33     1.082   .     S
C24    C25     1.397   .     A
C24    H34     1.082   .     S
C24    N31     1.359   1_454 A
C25    H35     1.082   .     S
C25    C21     1.403   1_454 A
H26    C40     1.083   .     S
H27    C37     1.082   .     S
H28    C38     1.082   .     S
H29    C39     1.082   .     S
N30    C38     1.359   .     A
N30    C39     1.360   1_454 A
N31    Ni20    1.840   1_656 S
N31    C24     1.359   1_656 A
C36    C37     1.404   .     A
C36    C40     1.403   1_454 A
C37    C38     1.397   .     A
C39    C40     1.397   .     A
C39    N30     1.360   1_656 A
C40    C36     1.403   1_656 A
Ni41   N51     1.840   1_554 S
Ni41   N52     1.840   1_545 S
C42    C43     1.403   .     A
C42    C46     1.404   1_564 A
C42    C5      1.475   1_565 S
C43    C44     1.398   .     A
C43    H53     1.083   .     S
C44    N52     1.360   .     A
C44    H54     1.082   .     S
C45    C46     1.396   .     A
C45    H55     1.082   .     S
C45    N52     1.359   1_546 A
C46    H56     1.083   .     S
C46    C42     1.404   1_546 A
H47    C61     1.084   .     S
H48    C58     1.083   .     S
H49    C59     1.082   .     S
H50    C60     1.082   .     S
N51    C59     1.360   .     A
N51    Ni41    1.840   1_556 S
N51    C60     1.359   1_546 A
N52    Ni41    1.840   1_565 S
N52    C45     1.359   1_564 A
C57    C58     1.403   .     A
C57    C61     1.404   1_546 A
C57    C2      1.474   1_545 S
C58    C59     1.397   .     A
C60    C61     1.397   .     A
C60    N51     1.359   1_564 A
C61    C57     1.404   1_564 A
Ni62   N72     1.839   .     S
Ni62   N73     1.839   1_445 S
C63    C64     1.402   1_545 A
C63    C67     1.403   1_655 A
C64    C65     1.397   .     A
C64    H74     1.082   .     S
C64    C63     1.402   1_565 A
C65    N73     1.359   .     A
C65    H75     1.082   .     S
C66    C67     1.397   .     A
C66    H76     1.082   .     S
C66    N73     1.360   1_445 A
C67    H77     1.083   .     S
C67    C63     1.403   1_455 A
H68    C82     1.083   .     S
H69    C79     1.081   .     S
H70    C80     1.082   .     S
H71    C81     1.082   .     S
N72    C80     1.359   .     A
N72    C81     1.360   1_445 A
N73    Ni62    1.839   1_665 S
N73    C66     1.360   1_665 A
C78    C79     1.402   .     A
C78    C82     1.403   1_445 A
C78    C6      1.472   1_545 S
C79    C80     1.397   .     A
C81    C82     1.397   .     A
C81    N72     1.360   1_665 A
C82    C78     1.403   1_665 A
