data_pcu+N505+E191
_audit_creation_date              2023-11-17
_audit_creation_method            'Materials Studio'
_symmetry_space_group_name_H-M    'P1'
_symmetry_Int_Tables_number       1
_symmetry_cell_setting            triclinic
loop_
_symmetry_equiv_pos_as_xyz
  x,y,z
_cell_length_a                    15.4403
_cell_length_b                    20.9647
_cell_length_c                    18.9713
_cell_angle_alpha                 87.4404
_cell_angle_beta                  22.5845
_cell_angle_gamma                 80.1704
loop_
_atom_site_label
_atom_site_type_symbol
_atom_site_fract_x
_atom_site_fract_y
_atom_site_fract_z
_atom_site_U_iso_or_equiv
_atom_site_adp_type
_atom_site_occupancy
Yb0    Yb    1.03753   0.09596  -0.09665   0.00000  Uiso   1.00
Yb1    Yb   -0.03736   0.90422   1.09682   0.00000  Uiso   1.00
C2     C    -0.02499   0.78752   1.06837   0.00000  Uiso   1.00
O3     O     0.20644   0.02832   0.69793   0.00000  Uiso   1.00
O4     O     0.88719   0.11809   0.91516   0.00000  Uiso   1.00
O5     O     0.82242   0.03442   0.09893   0.00000  Uiso   1.00
O6     O     0.74721   0.93922   1.16330   0.00000  Uiso   1.00
O7     O     1.18852   0.17233   0.77132   0.00000  Uiso   1.00
O8     O     0.86820   0.18884   0.07687   0.00000  Uiso   1.00
O9     O     0.79361   0.97193   0.30229   0.00000  Uiso   1.00
O10    O     0.11276   0.88215   0.08520   0.00000  Uiso   1.00
C11    C     1.05085   0.06580   0.76904   0.00000  Uiso   1.00
O12    O     0.25309   0.06092  -0.16326   0.00000  Uiso   1.00
O13    O     0.17787   0.96573   0.90113   0.00000  Uiso   1.00
O14    O    -0.18847   0.82788   0.22896   0.00000  Uiso   1.00
C15    C     0.74842   0.99133   0.12547   0.00000  Uiso   1.00
O16    O     0.13209   0.81130   0.92331   0.00000  Uiso   1.00
C17    C     1.02526   0.21264  -0.06817   0.00000  Uiso   1.00
C18    C    -0.05091   0.93447   0.23128   0.00000  Uiso   1.00
C19    C     0.25190   0.00882   0.87456   0.00000  Uiso   1.00
Ni20   Ni    0.00014   0.50006   0.00022   0.00000  Uiso   1.00
C21    C     0.98144   0.71779   1.05170   0.00000  Uiso   1.00
C22    C     1.15863   0.67528   0.87634   0.00000  Uiso   1.00
C23    C     1.16089   0.60956   0.86402   0.00000  Uiso   1.00
C24    C    -0.18081   0.62687   0.19226   0.00000  Uiso   1.00
C25    C    -0.19002   0.69295   0.21117   0.00000  Uiso   1.00
H26    H     1.32637   0.27658   0.65262   0.00000  Uiso   1.00
H27    H    -0.28964   0.30687   0.24864   0.00000  Uiso   1.00
H28    H    -0.29273   0.42295   0.26958   0.00000  Uiso   1.00
H29    H     1.30905   0.39337   0.68721   0.00000  Uiso   1.00
N30    N     0.00759   0.41326  -0.02034   0.00000  Uiso   1.00
N31    N     0.99274   0.58685   1.02072   0.00000  Uiso   1.00
H32    H     1.29376   0.69261   0.75017   0.00000  Uiso   1.00
H33    H     1.29663   0.57654   0.72948   0.00000  Uiso   1.00
H34    H    -0.31225   0.60737   0.31446   0.00000  Uiso   1.00
H35    H    -0.32961   0.72419   0.34892   0.00000  Uiso   1.00
C36    C     0.01895   0.28234  -0.05151   0.00000  Uiso   1.00
C37    C    -0.15621   0.32449   0.12314   0.00000  Uiso   1.00
C38    C    -0.15858   0.39020   0.13561   0.00000  Uiso   1.00
C39    C     1.17922   0.37358   0.80878   0.00000  Uiso   1.00
C40    C     1.18840   0.30752   0.78981   0.00000  Uiso   1.00
Ni41   Ni    0.50023   0.00006  -0.00004   0.00000  Uiso   1.00
C42    C     0.31636   0.00479  -0.09853   0.00000  Uiso   1.00
C43    C     0.23213   0.06357   0.00330   0.00000  Uiso   1.00
C44    C     0.29597   0.06103   0.02634   0.00000  Uiso   1.00
C45    C     0.53154   0.94480   0.84440   0.00000  Uiso   1.00
C46    C     0.47298   0.94521   0.81681   0.00000  Uiso   1.00
H47    H     0.45241   0.10041   0.26865   0.00000  Uiso   1.00
H48    H     0.88509   0.88933   0.93336   0.00000  Uiso   1.00
H49    H     0.77376   0.89439   0.89108   0.00000  Uiso   1.00
H50    H     0.35270   0.10143   0.21626   0.00000  Uiso   1.00
N51    N     0.56105   0.99813   1.04958   0.00000  Uiso   1.00
N52    N     0.43940   0.00201  -0.04966   0.00000  Uiso   1.00
H53    H     0.11504   0.11082   0.06684   0.00000  Uiso   1.00
H54    H     0.22685   0.10576   0.10871   0.00000  Uiso   1.00
H55    H     0.64764   0.89871   0.78373   0.00000  Uiso   1.00
H56    H     0.54779   0.89973   0.73147   0.00000  Uiso   1.00
C57    C     0.68394   0.99536   1.09858   0.00000  Uiso   1.00
C58    C     0.76807   0.93657   0.99683   0.00000  Uiso   1.00
C59    C     0.70448   0.93912   0.97359   0.00000  Uiso   1.00
C60    C     0.46876   0.05534   0.15563   0.00000  Uiso   1.00
C61    C     0.52725   0.05493   0.18329   0.00000  Uiso   1.00
Ni62   Ni   -0.00005   0.00019   0.50015   0.00000  Uiso   1.00
C63    C    -0.05188   0.95059   0.30683   0.00000  Uiso   1.00
C64    C     0.08278  -0.09930   0.25537   0.00000  Uiso   1.00
C65    C     0.09518  -0.08284   0.31593   0.00000  Uiso   1.00
C66    C     0.84459   1.03047   0.47733   0.00000  Uiso   1.00
C67    C     0.82601   1.01606   0.42069   0.00000  Uiso   1.00
H68    H     0.27741  -0.05562   0.53895   0.00000  Uiso   1.00
H69    H     0.81985   1.15066   0.83329   0.00000  Uiso   1.00
H70    H     0.80020   1.12127   0.72443   0.00000  Uiso   1.00
H71    H     0.24776  -0.08054   0.43585   0.00000  Uiso   1.00
N72    N     1.02210   0.01924   0.57627   0.00000  Uiso   1.00
N73    N    -0.02215   0.98112   0.42401   0.00000  Uiso   1.00
H74    H     0.17954  -0.15040   0.16752   0.00000  Uiso   1.00
H75    H     0.19919  -0.12096   0.27635   0.00000  Uiso   1.00
H76    H     0.75270   1.08093   0.56396   0.00000  Uiso   1.00
H77    H     0.72305   1.05596   0.46089   0.00000  Uiso   1.00
C78    C     1.05192   0.04972   0.69340   0.00000  Uiso   1.00
C79    C     0.91680   1.09959   0.74526   0.00000  Uiso   1.00
C80    C     0.90451   1.08317   0.68459   0.00000  Uiso   1.00
C81    C     0.15561  -0.03011   0.52273   0.00000  Uiso   1.00
C82    C     0.17418  -0.01573   0.57939   0.00000  Uiso   1.00
loop_
_geom_bond_atom_site_label_1
_geom_bond_atom_site_label_2
_geom_bond_distance
_geom_bond_site_symmetry_2
_ccdc_geom_bond_type
Yb0    O5      2.178   .     S
Yb0    O8      2.099   .     S
Yb0    O3      2.113   1_654 S
Yb0    O4      2.082   1_554 S
Yb0    O7      2.099   1_554 S
Yb0    O12     2.167   1_655 S
Yb1    O13     2.178   .     S
Yb1    O16     2.099   .     S
Yb1    O6      2.167   1_455 S
Yb1    O9      2.113   1_456 S
Yb1    O10     2.082   1_556 S
Yb1    O14     2.099   1_556 S
C2     O16     1.292   .     A
C2     O14     1.292   1_556 A
C2     C21     1.477   1_455 S
O3     Yb0     2.113   1_456 S
O3     C11     1.294   1_455 A
O4     C11     1.289   .     A
O4     Yb0     2.082   1_556 S
O5     C15     1.275   1_545 A
O6     Yb1     2.167   1_655 S
O6     C15     1.273   1_556 A
O7     Yb0     2.099   1_556 S
O7     C17     1.292   1_556 A
O8     C17     1.292   .     A
O9     Yb1     2.113   1_654 S
O9     C18     1.294   1_655 A
O10    C18     1.289   .     A
O10    Yb1     2.082   1_554 S
C11    C78     1.473   .     S
C11    O3      1.294   1_655 A
O12    Yb0     2.167   1_455 S
O12    C19     1.273   1_554 A
O13    C19     1.274   1_565 A
O14    Yb1     2.099   1_554 S
O14    C2      1.292   1_554 A
C15    O5      1.275   1_565 A
C15    O6      1.273   1_554 A
C15    C57     1.471   1_554 S
C17    O7      1.292   1_554 A
C17    C36     1.477   1_655 S
C18    C63     1.473   .     S
C18    O9      1.294   1_455 A
C19    O12     1.273   1_556 A
C19    O13     1.274   1_545 A
C19    C42     1.471   1_556 S
Ni20   N30     1.840   .     S
Ni20   N31     1.840   1_454 S
C21    C22     1.404   .     A
C21    C25     1.404   1_656 A
C21    C2      1.477   1_655 S
C22    C23     1.397   .     A
C22    H32     1.083   .     S
C23    N31     1.359   .     A
C23    H33     1.082   .     S
C24    C25     1.397   .     A
C24    H34     1.082   .     S
C24    N31     1.359   1_454 A
C25    H35     1.083   .     S
C25    C21     1.404   1_454 A
H26    C40     1.083   .     S
H27    C37     1.083   .     S
H28    C38     1.082   .     S
H29    C39     1.082   .     S
N30    C38     1.359   .     A
N30    C39     1.359   1_454 A
N31    Ni20    1.840   1_656 S
N31    C24     1.359   1_656 A
C36    C37     1.404   .     A
C36    C40     1.404   1_454 A
C36    C17     1.477   1_455 S
C37    C38     1.397   .     A
C39    C40     1.397   .     A
C39    N30     1.359   1_656 A
C40    C36     1.404   1_656 A
Ni41   N52     1.840   .     S
Ni41   N51     1.840   1_544 S
C42    C43     1.403   .     A
C42    C46     1.401   1_544 A
C42    C19     1.471   1_554 S
C43    C44     1.393   .     A
C43    H53     1.083   .     S
C44    N52     1.357   .     A
C44    H54     1.082   .     S
C45    C46     1.401   .     A
C45    H55     1.082   .     S
C45    N52     1.362   1_566 A
C46    H56     1.083   .     S
C46    C42     1.401   1_566 A
H47    C61     1.083   .     S
H48    C58     1.083   .     S
H49    C59     1.082   .     S
H50    C60     1.081   .     S
N51    C59     1.357   .     A
N51    Ni41    1.840   1_566 S
N51    C60     1.362   1_566 A
N52    C45     1.362   1_544 A
C57    C58     1.403   .     A
C57    C61     1.401   1_566 A
C57    C15     1.471   1_556 S
C58    C59     1.393   .     A
C60    C61     1.401   .     A
C60    N51     1.362   1_544 A
C61    C57     1.401   1_544 A
Ni62   N72     1.836   1_455 S
Ni62   N73     1.836   1_545 S
C63    C64     1.404   1_565 A
C63    C67     1.402   1_455 A
C64    C65     1.393   .     A
C64    H74     1.083   .     S
C64    C63     1.404   1_545 A
C65    H75     1.082   .     S
C65    N73     1.357   1_545 A
C66    C67     1.399   .     A
C66    H76     1.082   .     S
C66    N73     1.360   1_655 A
C67    H77     1.083   .     S
C67    C63     1.402   1_655 A
H68    C82     1.083   .     S
H69    C79     1.083   .     S
H70    C80     1.082   .     S
H71    C81     1.082   .     S
N72    Ni62    1.836   1_655 S
N72    C80     1.357   1_545 A
N72    C81     1.360   1_655 A
N73    Ni62    1.836   1_565 S
N73    C65     1.357   1_565 A
N73    C66     1.360   1_455 A
C78    C79     1.404   1_545 A
C78    C82     1.402   1_655 A
C79    C80     1.393   .     A
C79    C78     1.404   1_565 A
C80    N72     1.357   1_565 A
C81    C82     1.399   .     A
C81    N72     1.360   1_455 A
C82    C78     1.402   1_455 A
