data_pcu+N106+E35
_audit_creation_date              2023-11-17
_audit_creation_method            'Materials Studio'
_symmetry_space_group_name_H-M    'P1'
_symmetry_Int_Tables_number       1
_symmetry_cell_setting            triclinic
loop_
_symmetry_equiv_pos_as_xyz
  x,y,z
_cell_length_a                    18.5134
_cell_length_b                    15.5830
_cell_length_c                    14.4530
_cell_angle_alpha                 95.1699
_cell_angle_beta                  67.0941
_cell_angle_gamma                 93.6843
loop_
_atom_site_label
_atom_site_type_symbol
_atom_site_fract_x
_atom_site_fract_y
_atom_site_fract_z
_atom_site_U_iso_or_equiv
_atom_site_adp_type
_atom_site_occupancy
Y0     Y     0.91200  -0.00575   0.02506   0.00000  Uiso   1.00
Y1     Y     0.10047   1.00485   0.97196   0.00000  Uiso   1.00
O2     O     0.95161   0.13183  -0.00930   0.00000  Uiso   1.00
O3     O     1.02254  -0.04036   0.88914   0.00000  Uiso   1.00
C4     C     0.24772   0.99745   0.96443   0.00000  Uiso   1.00
O5     O     0.11239   1.05456   0.82334   0.00000  Uiso   1.00
O6     O     0.79454  -0.06883   0.04279   0.00000  Uiso   1.00
O7     O     0.82649   0.04620   0.96918   0.00000  Uiso   1.00
O8     O     0.06620   0.14357   1.01193   0.00000  Uiso   1.00
O9     O    -0.00973   1.01198   0.11126   0.00000  Uiso   1.00
O10    O     0.86750   0.01266   0.19670   0.00000  Uiso   1.00
O11    O     0.94562   0.85550  -0.00173   0.00000  Uiso   1.00
C12    C     0.00841   0.17717   1.00186   0.00000  Uiso   1.00
O13    O     0.06400   0.86626   1.00958   0.00000  Uiso   1.00
C14    C     0.05614   1.01574   0.81491   0.00000  Uiso   1.00
O15    O     0.22404   0.95667   0.90152   0.00000  Uiso   1.00
O16    O     0.19525   1.04215   0.03079   0.00000  Uiso   1.00
C17    C     0.77492  -0.01303  -0.00037   0.00000  Uiso   1.00
C18    C     1.00396   0.82162   0.00667   0.00000  Uiso   1.00
C19    C     0.93063   0.01855   0.20417   0.00000  Uiso   1.00
C20    C    -0.00111   0.54692   0.01026   0.00000  Uiso   1.00
C21    C     0.93040   0.58937   1.02393   0.00000  Uiso   1.00
C22    C     0.93229   0.67875   1.02343   0.00000  Uiso   1.00
C23    C     0.00176   0.72683   0.01091   0.00000  Uiso   1.00
C24    C     0.06835   0.68243   0.00104   0.00000  Uiso   1.00
N25    N     0.06534   0.59484   0.00062   0.00000  Uiso   1.00
C26    C     0.00042   0.45158   0.00656   0.00000  Uiso   1.00
N27    N     0.05653   0.41438   0.02737   0.00000  Uiso   1.00
C28    C     0.06090   0.32730   0.02576   0.00000  Uiso   1.00
C29    C     0.00645   0.27210   0.00225   0.00000  Uiso   1.00
C30    C     0.94913   0.30920   0.97883   0.00000  Uiso   1.00
C31    C     0.94621   0.39833   0.98023   0.00000  Uiso   1.00
H32    H     0.87905   0.71018   1.03314   0.00000  Uiso   1.00
H33    H     0.12303   0.71699  -0.00805   0.00000  Uiso   1.00
H34    H     0.10643   0.30149   0.04365   0.00000  Uiso   1.00
H35    H     0.90664   0.26935   0.95862   0.00000  Uiso   1.00
H36    H     0.87539   0.55464   1.03604   0.00000  Uiso   1.00
H37    H     0.90256   0.42447   0.95913   0.00000  Uiso   1.00
C38    C     0.47711  -0.01589  -0.03624   0.00000  Uiso   1.00
C39    C     0.44909   0.91759   0.91307   0.00000  Uiso   1.00
C40    C     0.37457   0.92266   0.91135   0.00000  Uiso   1.00
C41    C     0.32771  -0.00719  -0.03825   0.00000  Uiso   1.00
C42    C     0.35800   0.05802   0.01120   0.00000  Uiso   1.00
N43    N     0.43128   0.05255   0.01020   0.00000  Uiso   1.00
C44    C     0.55508  -0.01843  -0.03165   0.00000  Uiso   1.00
N45    N     0.59903   0.05593  -0.03814   0.00000  Uiso   1.00
C46    C     0.67017   0.05858  -0.03087   0.00000  Uiso   1.00
C47    C     0.69961  -0.01619  -0.01305   0.00000  Uiso   1.00
C48    C     0.65511   0.90659   0.99465   0.00000  Uiso   1.00
C49    C     0.58312   0.90500   0.98432   0.00000  Uiso   1.00
H50    H     0.35307   0.87122   0.87225   0.00000  Uiso   1.00
H51    H     0.32368   0.11348   0.05015   0.00000  Uiso   1.00
H52    H     0.70277   0.11943  -0.03665   0.00000  Uiso   1.00
H53    H     0.67596   0.84767   1.00863   0.00000  Uiso   1.00
H54    H     0.48472   0.86296   0.87431   0.00000  Uiso   1.00
H55    H     0.54875   0.84524   0.99172   0.00000  Uiso   1.00
C56    C    -0.03232   0.03360   0.47839   0.00000  Uiso   1.00
C57    C     0.89077   0.02311   0.48160   0.00000  Uiso   1.00
C58    C     0.87810   0.02039   0.39220   0.00000  Uiso   1.00
C59    C    -0.05824   0.02792   0.30007   0.00000  Uiso   1.00
C60    C     0.01728   1.04081   0.30033   0.00000  Uiso   1.00
N61    N     0.02821   1.04332   0.38821   0.00000  Uiso   1.00
C62    C    -0.01457   1.03242   0.56954   0.00000  Uiso   1.00
N63    N     0.05153   1.07466   0.57178   0.00000  Uiso   1.00
C64    C     0.07417   1.07230   0.65040   0.00000  Uiso   1.00
C65    C     0.03013   0.02354   0.73195   0.00000  Uiso   1.00
C66    C     0.96175  -0.02027   0.73163   0.00000  Uiso   1.00
C67    C     0.93902  -0.01585   0.65080   0.00000  Uiso   1.00
H68    H     0.81888   0.01087   0.39486   0.00000  Uiso   1.00
H69    H     0.06774   1.04757   0.23067   0.00000  Uiso   1.00
H70    H     0.12739   1.10690   0.64802   0.00000  Uiso   1.00
H71    H     0.92655  -0.05900   0.79308   0.00000  Uiso   1.00
H72    H     0.84095   0.01722   0.55204   0.00000  Uiso   1.00
H73    H     0.88735  -0.05236   0.65066   0.00000  Uiso   1.00
loop_
_geom_bond_atom_site_label_1
_geom_bond_atom_site_label_2
_geom_bond_distance
_geom_bond_site_symmetry_2
_ccdc_geom_bond_type
Y0     O2      2.255   .     S
Y0     O6      2.258   .     S
Y0     O10     2.286   .     S
Y0     O3      2.272   1_554 S
Y0     O7      2.256   1_554 S
Y0     O9      2.241   1_645 S
Y0     O11     2.247   1_545 S
Y1     O5      2.274   .     S
Y1     O13     2.270   .     S
Y1     O15     2.259   .     S
Y1     O3      2.252   1_465 S
Y1     O8      2.253   1_565 S
Y1     O9      2.240   1_556 S
Y1     O16     2.254   1_556 S
O2     C12     1.283   1_654 A
O3     Y0      2.272   1_556 S
O3     Y1      2.252   1_645 S
O3     C14     1.372   1_645 S
C4     O15     1.262   .     A
C4     O16     1.261   1_556 A
C4     C41     1.473   1_566 S
O5     C14     1.213   .     D
O6     C17     1.262   .     A
O7     Y0      2.256   1_556 S
O7     C17     1.261   1_556 A
O8     C12     1.283   .     A
O8     Y1      2.253   1_545 S
O9     Y0      2.241   1_465 S
O9     Y1      2.240   1_554 S
O9     C19     1.367   1_465 S
O10    C19     1.212   .     D
O11    C18     1.283   .     A
O11    Y0      2.247   1_565 S
C12    O2      1.283   1_456 A
C12    C29     1.481   1_556 S
O13    C18     1.286   1_456 A
C14    O3      1.372   1_465 S
C14    C65     1.472   1_565 S
O16    Y1      2.254   1_554 S
O16    C4      1.261   1_554 A
C17    C47     1.473   .     S
C17    O7      1.261   1_554 A
C18    O13     1.286   1_654 A
C18    C23     1.481   1_655 S
C19    O9      1.367   1_645 S
C19    C59     1.472   1_655 S
C20    N25     1.363   .     A
C20    C26     1.483   .     S
C20    C21     1.405   1_454 A
C21    C22     1.392   .     A
C21    H36     1.081   .     S
C21    C20     1.405   1_656 A
C22    H32     1.083   .     S
C22    C23     1.403   1_656 A
C23    C24     1.405   .     A
C23    C22     1.403   1_454 A
C23    C18     1.481   1_455 S
C24    N25     1.362   .     A
C24    H33     1.082   .     S
C26    N27     1.363   .     A
C26    C31     1.405   1_454 A
N27    C28     1.362   .     A
C28    C29     1.405   .     A
C28    H34     1.082   .     S
C29    C30     1.403   1_454 A
C29    C12     1.481   1_554 S
C30    C31     1.392   .     A
C30    H35     1.083   .     S
C30    C29     1.403   1_656 A
C31    H37     1.081   .     S
C31    C26     1.405   1_656 A
C38    N43     1.361   .     A
C38    C44     1.474   .     S
C38    C39     1.404   1_544 A
C39    C40     1.397   .     A
C39    H54     1.083   .     S
C39    C38     1.404   1_566 A
C40    H50     1.083   .     S
C40    C41     1.402   1_566 A
C41    C42     1.402   .     A
C41    C40     1.402   1_544 A
C41    C4      1.473   1_544 S
C42    N43     1.359   .     A
C42    H51     1.083   .     S
C44    N45     1.361   .     A
C44    C49     1.403   1_544 A
N45    C46     1.359   .     A
C46    C47     1.402   .     A
C46    H52     1.083   .     S
C47    C48     1.402   1_544 A
C48    C49     1.396   .     A
C48    H53     1.083   .     S
C48    C47     1.402   1_566 A
C49    H55     1.083   .     S
C49    C44     1.403   1_566 A
C56    C57     1.406   1_455 A
C56    N61     1.362   1_545 A
C56    C62     1.479   1_545 S
C57    C58     1.397   .     A
C57    H72     1.082   .     S
C57    C56     1.406   1_655 A
C58    H68     1.083   .     S
C58    C59     1.402   1_655 A
C59    C58     1.402   1_455 A
C59    C60     1.401   1_545 A
C59    C19     1.472   1_455 S
C60    N61     1.359   .     A
C60    H69     1.082   .     S
C60    C59     1.401   1_565 A
N61    C56     1.362   1_565 A
C62    N63     1.362   .     A
C62    C56     1.479   1_565 S
C62    C67     1.405   1_465 A
N63    C64     1.360   .     A
C64    H70     1.082   .     S
C64    C65     1.402   1_565 A
C65    C64     1.402   1_545 A
C65    C66     1.401   1_455 A
C65    C14     1.472   1_545 S
C66    C67     1.396   .     A
C66    H71     1.083   .     S
C66    C65     1.401   1_655 A
C67    H73     1.082   .     S
C67    C62     1.405   1_645 A
