data_pcu+N106+E59
_audit_creation_date              2023-11-17
_audit_creation_method            'Materials Studio'
_symmetry_space_group_name_H-M    'P1'
_symmetry_Int_Tables_number       1
_symmetry_cell_setting            triclinic
loop_
_symmetry_equiv_pos_as_xyz
  x,y,z
_cell_length_a                    19.2513
_cell_length_b                    20.6014
_cell_length_c                    17.9097
_cell_angle_alpha                 44.8719
_cell_angle_beta                  45.1883
_cell_angle_gamma                 47.0147
loop_
_atom_site_label
_atom_site_type_symbol
_atom_site_fract_x
_atom_site_fract_y
_atom_site_fract_z
_atom_site_U_iso_or_equiv
_atom_site_adp_type
_atom_site_occupancy
Y0     Y     0.97282   0.06738  -0.09381   0.00000  Uiso   1.00
Y1     Y     0.11509   0.88141   1.04714   0.00000  Uiso   1.00
O2     O     1.06775   0.13310  -0.14928   0.00000  Uiso   1.00
O3     O     1.14795  -0.02110   0.85511   0.00000  Uiso   1.00
C4     C     0.21570   0.74673   1.18509   0.00000  Uiso   1.00
O5     O     0.21140   0.82234   0.91825   0.00000  Uiso   1.00
O6     O     0.82577   0.16050  -0.11884   0.00000  Uiso   1.00
O7     O     0.96698   0.17522   0.73047   0.00000  Uiso   1.00
O8     O     0.11842   0.01557   0.99752   0.00000  Uiso   1.00
O9     O    -0.05878   0.96825   0.09697   0.00000  Uiso   1.00
O10    O     0.87921   0.12370   0.03740   0.00000  Uiso   1.00
O11    O     0.97417   0.93136  -0.04662   0.00000  Uiso   1.00
C12    C     0.10801   0.10135   0.91019   0.00000  Uiso   1.00
O13    O     0.02569   0.81157   1.09960   0.00000  Uiso   1.00
C14    C     0.20002   0.90050   0.83360   0.00000  Uiso   1.00
O15    O     0.26027   0.78865   1.07515   0.00000  Uiso   1.00
O16    O     0.11824   0.77390   0.22494   0.00000  Uiso   1.00
C17    C     0.86946   0.20231  -0.22876   0.00000  Uiso   1.00
C18    C     0.98916   0.84353   0.03629   0.00000  Uiso   1.00
C19    C     0.89051   0.04444   0.12127   0.00000  Uiso   1.00
C20    C     1.07564   0.28639   1.02277   0.00000  Uiso   1.00
C21    C     0.92534   0.43156   1.05442   0.00000  Uiso   1.00
H22    H    -0.21428   0.55097   0.35456   0.00000  Uiso   1.00
C23    C     0.06214   0.35189   0.10597   0.00000  Uiso   1.00
C24    C     0.11660   0.28290   0.06702   0.00000  Uiso   1.00
N25    N    -0.14640   0.80451   1.10548   0.00000  Uiso   1.00
N26    N     1.09045   0.18820  -0.02872   0.00000  Uiso   1.00
O27    O    -0.26176   0.73269   0.28965   0.00000  Uiso   1.00
O28    O     1.23427   0.18471   0.93297   0.00000  Uiso   1.00
H29    H     0.00164   0.69789   0.11286   0.00000  Uiso   1.00
H30    H     0.00592   0.77822   0.96929   0.00000  Uiso   1.00
H31    H    -0.14517   0.42050   0.31399   0.00000  Uiso   1.00
H32    H     0.90232   0.73994   0.98287   0.00000  Uiso   1.00
H33    H     0.97128   0.60928   0.94398   0.00000  Uiso   1.00
H34    H     0.80664   0.87927   1.07339   0.00000  Uiso   1.00
H35    H     0.94627   0.36779   0.98106   0.00000  Uiso   1.00
H36    H     1.23183   0.12594   0.85252   0.00000  Uiso   1.00
H37    H     1.13547   0.23630  -0.20295   0.00000  Uiso   1.00
H38    H     0.85295   0.49101   1.04562   0.00000  Uiso   1.00
H39    H     0.19131   0.22660   0.07127   0.00000  Uiso   1.00
H40    H     0.09631   0.34844   0.13798   0.00000  Uiso   1.00
H41    H     0.00909   0.20636   0.01788   0.00000  Uiso   1.00
C42    C    -0.17481   0.56491   0.26461   0.00000  Uiso   1.00
C43    C    -0.19420   0.73198   0.19422   0.00000  Uiso   1.00
C44    C    -0.03316   0.77504   0.05538   0.00000  Uiso   1.00
C45    C    -0.08284   0.50633   0.12589   0.00000  Uiso   1.00
C46    C    -0.16023   0.65538   0.17173   0.00000  Uiso   1.00
C47    C    -0.13521   0.49032   0.24176   0.00000  Uiso   1.00
C48    C     0.89087   0.67097   1.05618   0.00000  Uiso   1.00
C49    C     0.92926   0.59699   1.03367   0.00000  Uiso   1.00
C50    C     0.97892   0.36118   1.01750   0.00000  Uiso   1.00
C51    C     1.13867   0.21706   0.97375   0.00000  Uiso   1.00
C52    C     1.14619   0.16578   0.87591   0.00000  Uiso   1.00
C53    C     0.96682   0.42703   1.09884   0.00000  Uiso   1.00
C54    C     0.61951   0.16904  -0.16777   0.00000  Uiso   1.00
C55    C     0.49186   0.08781  -0.00918   0.00000  Uiso   1.00
H56    H     0.61738   0.69994   1.08215   0.00000  Uiso   1.00
C57    C     0.64192   1.03456   0.83758   0.00000  Uiso   1.00
C58    C     0.67615   1.10676   0.78237   0.00000  Uiso   1.00
N59    N     0.31750   0.72131   0.24218   0.00000  Uiso   1.00
N60    N     0.76865   0.22196   0.71869   0.00000  Uiso   1.00
O61    O     0.49074   0.64940   1.13328   0.00000  Uiso   1.00
O62    O     0.59500   0.31630  -0.20582   0.00000  Uiso   1.00
H63    H     0.33683   0.61146   1.23391   0.00000  Uiso   1.00
H64    H     0.22027   0.64173   0.35345   0.00000  Uiso   1.00
H65    H     0.67066   0.82983   0.98883   0.00000  Uiso   1.00
H66    H     0.30090  -0.09019   0.12550   0.00000  Uiso   1.00
H67    H     0.35356   0.03776   0.03763   0.00000  Uiso   1.00
H68    H     0.26671  -0.23588   0.28688   0.00000  Uiso   1.00
H69    H     0.48109   0.20614  -0.02269   0.00000  Uiso   1.00
H70    H     0.74741   0.33623  -0.27780   0.00000  Uiso   1.00
H71    H     0.86426   0.30335   0.60447   0.00000  Uiso   1.00
H72    H     0.42228   0.07945   0.07302   0.00000  Uiso   1.00
H73    H     0.74610   1.11429   0.70026   0.00000  Uiso   1.00
H74    H     0.68673   0.98734   0.79773   0.00000  Uiso   1.00
H75    H     0.82240   1.16062   0.70105   0.00000  Uiso   1.00
C76    C     0.55908   0.77356   1.07249   0.00000  Uiso   1.00
C77    C     0.42446   0.71723   1.16111   0.00000  Uiso   1.00
C78    C     0.27357   0.67332   1.25908   0.00000  Uiso   1.00
C79    C     0.51668   0.94438   1.00328   0.00000  Uiso   1.00
C80    C     0.45505   0.79436   1.11140   0.00000  Uiso   1.00
C81    C     0.58965   0.84780   1.01877   0.00000  Uiso   1.00
C82    C     0.38158  -0.10933   0.09787   0.00000  Uiso   1.00
C83    C     0.41169  -0.03554   0.04623   0.00000  Uiso   1.00
C84    C     0.52572   0.16013  -0.06415   0.00000  Uiso   1.00
C85    C     0.65817   0.24134  -0.22002   0.00000  Uiso   1.00
C86    C     0.81072   0.27343  -0.30127   0.00000  Uiso   1.00
C87    C     0.55029   0.02357  -0.05703   0.00000  Uiso   1.00
C88    C     0.08438   0.05573   0.55273   0.00000  Uiso   1.00
C89    C    -0.03704   0.16873   0.46526   0.00000  Uiso   1.00
H90    H     0.73957   1.00956   0.55765   0.00000  Uiso   1.00
C91    C     1.02428   0.99281   0.53993   0.00000  Uiso   1.00
C92    C     1.08396  -0.02382   0.57350   0.00000  Uiso   1.00
N93    N     0.79858   0.12682   0.23591   0.00000  Uiso   1.00
N94    N     0.15967   0.94741   0.69684   0.00000  Uiso   1.00
O95    O     0.65152   1.12591   0.40875   0.00000  Uiso   1.00
O96    O     0.17504   0.09832   0.54605   0.00000  Uiso   1.00
H97    H     0.91712   0.98538   0.25960   0.00000  Uiso   1.00
H98    H     0.79456  -0.00701   0.30395   0.00000  Uiso   1.00
H99    H     0.83865   0.98870   0.61637   0.00000  Uiso   1.00
H100   H    -0.15201   0.24205   0.22052   0.00000  Uiso   1.00
H101   H    -0.06034   0.22607   0.28361   0.00000  Uiso   1.00
H102   H     0.83450   0.17894   0.16221   0.00000  Uiso   1.00
H103   H     0.02448   0.21513   0.47805   0.00000  Uiso   1.00
H104   H     0.29381  -0.04624   0.64808   0.00000  Uiso   1.00
H105   H     0.29507   0.83243   0.72417   0.00000  Uiso   1.00
H106   H    -0.08406   0.24378   0.42408   0.00000  Uiso   1.00
H107   H     1.12824   0.90040   0.61787   0.00000  Uiso   1.00
H108   H     1.02601   0.93000   0.55655   0.00000  Uiso   1.00
H109   H     0.11716   0.90250   0.75223   0.00000  Uiso   1.00
C110   C     0.78238   1.05772   0.49758   0.00000  Uiso   1.00
C111   C     0.73880   1.12996   0.34453   0.00000  Uiso   1.00
C112   C     0.85024   0.03161   0.23765   0.00000  Uiso   1.00
C113   C     0.89695   1.10560   0.45441   0.00000  Uiso   1.00
C114   C     0.78688   1.12702   0.38450   0.00000  Uiso   1.00
C115   C     0.83906   1.04567   0.53096   0.00000  Uiso   1.00
C116   C    -0.15583   1.18759   0.30776   0.00000  Uiso   1.00
C117   C    -0.10326   0.17839   0.34359   0.00000  Uiso   1.00
C118   C     0.02521   0.15240   0.49567   0.00000  Uiso   1.00
C119   C     0.14213   0.03703   0.59619   0.00000  Uiso   1.00
C120   C     0.24444   0.90792   0.71899   0.00000  Uiso   1.00
C121   C    -0.03850   0.08899   0.48775   0.00000  Uiso   1.00
loop_
_geom_bond_atom_site_label_1
_geom_bond_atom_site_label_2
_geom_bond_distance
_geom_bond_site_symmetry_2
_ccdc_geom_bond_type
Y0     O2      2.251   .     S
Y0     O6      2.249   .     S
Y0     O10     2.271   .     S
Y0     O3      2.272   1_554 S
Y0     O7      2.259   1_554 S
Y0     O9      2.256   1_645 S
Y0     O11     2.268   1_545 S
Y1     O5      2.263   .     S
Y1     O13     2.258   .     S
Y1     O15     2.247   .     S
Y1     O3      2.267   1_465 S
Y1     O8      2.261   1_565 S
Y1     O9      2.256   1_556 S
Y1     O16     2.268   1_556 S
O2     C12     1.284   1_654 A
O3     Y0      2.272   1_556 S
O3     Y1      2.267   1_645 S
O3     C14     1.375   1_645 S
C4     O15     1.256   .     A
C4     C78     1.492   .     S
C4     O16     1.261   1_556 A
O5     C14     1.211   .     D
O6     C17     1.255   .     A
O7     Y0      2.259   1_556 S
O7     C17     1.259   1_556 A
O8     C12     1.285   .     A
O8     Y1      2.261   1_545 S
O9     Y0      2.256   1_465 S
O9     Y1      2.256   1_554 S
O9     C19     1.373   1_465 S
O10    C19     1.212   .     D
O11    C18     1.283   .     A
O11    Y0      2.268   1_565 S
C12    O2      1.284   1_456 A
C12    C52     1.489   1_455 S
O13    C18     1.284   1_456 A
C14    C120    1.493   .     S
C14    O3      1.375   1_465 S
O16    Y1      2.268   1_554 S
O16    C4      1.261   1_554 A
C17    C86     1.492   .     S
C17    O7      1.259   1_554 A
C18    O13     1.284   1_654 A
C18    C44     1.493   1_655 S
C19    C112    1.495   .     S
C19    O9      1.373   1_645 S
C20    C50     1.407   .     A
C20    C51     1.482   .     S
C20    C24     1.406   1_656 A
C21    H38     1.084   .     S
C21    C50     1.401   .     A
C21    C53     1.403   .     A
H22    C42     1.082   .     S
C23    C24     1.396   .     A
C23    H40     1.085   .     S
C23    C53     1.399   1_454 A
C24    H39     1.083   .     S
C24    C20     1.406   1_454 A
N25    H34     1.048   1_455 S
N25    C43     1.433   1_556 S
N25    C44     1.462   1_556 S
N26    H41     1.044   1_655 S
N26    C51     1.437   1_554 S
N26    C52     1.463   1_554 S
O27    C43     1.220   .     D
O28    C51     1.220   .     D
H29    C44     1.112   .     S
H30    C44     1.112   1_556 S
H31    C47     1.081   .     S
H32    C48     1.080   .     S
H33    C49     1.082   .     S
H34    N25     1.048   1_655 S
H35    C50     1.084   .     S
H36    C52     1.112   .     S
H37    C52     1.114   1_554 S
H41    N26     1.044   1_455 S
C42    C46     1.407   .     A
C42    C47     1.401   .     A
C43    C46     1.484   .     S
C43    N25     1.433   1_554 S
C44    N25     1.462   1_554 S
C44    H30     1.112   1_554 S
C44    C18     1.493   1_455 S
C45    C47     1.402   .     A
C45    C49     1.396   1_454 A
C45    C53     1.469   1_454 S
C46    C48     1.405   1_454 A
C48    C49     1.395   .     A
C48    C46     1.405   1_656 A
C49    C45     1.396   1_656 A
C51    N26     1.437   1_556 S
C52    N26     1.463   1_556 S
C52    H37     1.114   1_556 S
C52    C12     1.489   1_655 S
C53    C23     1.399   1_656 A
C53    C45     1.469   1_656 S
C54    C84     1.408   .     A
C54    C85     1.484   .     S
C54    C58     1.406   1_544 A
C55    H72     1.080   .     S
C55    C84     1.398   .     A
C55    C87     1.404   .     A
H56    C76     1.082   .     S
C57    C58     1.399   .     A
C57    H74     1.082   .     S
C57    C87     1.404   1_566 A
C58    H73     1.082   .     S
C58    C54     1.406   1_566 A
N59    H68     1.047   1_565 S
N59    C77     1.441   1_554 S
N59    C78     1.463   1_554 S
N60    H75     1.044   1_545 S
N60    C85     1.435   1_556 S
N60    C86     1.461   1_556 S
O61    C77     1.220   .     D
O62    C85     1.220   .     D
H63    C78     1.111   .     S
H64    C78     1.114   1_554 S
H65    C81     1.083   .     S
H66    C82     1.082   .     S
H67    C83     1.080   .     S
H68    N59     1.047   1_545 S
H69    C84     1.084   .     S
H70    C86     1.111   .     S
H71    C86     1.109   1_556 S
H75    N60     1.044   1_565 S
C76    C80     1.402   .     A
C76    C81     1.398   .     A
C77    C80     1.482   .     S
C77    N59     1.441   1_556 S
C78    N59     1.463   1_556 S
C78    H64     1.114   1_556 S
C79    C81     1.402   .     A
C79    C83     1.403   1_566 A
C79    C87     1.484   1_566 S
C80    C82     1.404   1_566 A
C82    C83     1.398   .     A
C82    C80     1.404   1_544 A
C83    C79     1.403   1_544 A
C85    N60     1.435   1_554 S
C86    N60     1.461   1_554 S
C86    H71     1.109   1_554 S
C87    C57     1.404   1_544 A
C87    C79     1.484   1_544 S
C88    C118    1.404   .     A
C88    C119    1.484   .     S
C88    C92     1.405   1_455 A
C89    H106    1.082   .     S
C89    C118    1.399   .     A
C89    C121    1.404   .     A
H90    C110    1.083   .     S
C91    H108    1.083   .     S
C91    C92     1.394   1_565 A
C91    C121    1.401   1_665 A
C92    C88     1.405   1_655 A
C92    C91     1.394   1_545 A
C92    H107    1.085   1_545 S
N93    H102    1.044   .     S
N93    C112    1.461   .     S
N93    C111    1.426   1_545 S
N94    H109    1.047   .     S
N94    C120    1.458   .     S
N94    C119    1.436   1_565 S
O95    C111    1.218   .     D
O96    C119    1.218   .     D
H97    C112    1.109   1_565 S
H98    C112    1.105   .     S
H99    C115    1.081   .     S
H100   C116    1.082   1_545 S
H101   C117    1.078   .     S
H103   C118    1.083   .     S
H104   C120    1.109   1_545 S
H105   C120    1.110   .     S
H107   C92     1.085   1_565 S
C110   C114    1.404   .     A
C110   C115    1.396   .     A
C111   C114    1.473   .     S
C111   N93     1.426   1_565 S
C112   H97     1.109   1_545 S
C113   C115    1.403   .     A
C113   C117    1.404   1_665 A
C113   C121    1.481   1_665 S
C114   C116    1.404   1_655 A
C116   H100    1.082   1_565 S
C116   C114    1.404   1_455 A
C116   C117    1.398   1_565 A
C117   C113    1.404   1_445 A
C117   C116    1.398   1_545 A
C119   N94     1.436   1_545 S
C120   H104    1.109   1_565 S
C121   C91     1.401   1_445 A
C121   C113    1.481   1_445 S
