data_pcu+N394+E220
_audit_creation_date              2023-11-17
_audit_creation_method            'Materials Studio'
_symmetry_space_group_name_H-M    'P1'
_symmetry_Int_Tables_number       1
_symmetry_cell_setting            triclinic
loop_
_symmetry_equiv_pos_as_xyz
  x,y,z
_cell_length_a                    14.3533
_cell_length_b                    11.5798
_cell_length_c                    10.0050
_cell_angle_alpha                 70.9907
_cell_angle_beta                  103.7765
_cell_angle_gamma                 88.6962
loop_
_atom_site_label
_atom_site_type_symbol
_atom_site_fract_x
_atom_site_fract_y
_atom_site_fract_z
_atom_site_U_iso_or_equiv
_atom_site_adp_type
_atom_site_occupancy
Pr0    Pr    0.10581   1.00699   0.00453   0.00000  Uiso   1.00
Pr1    Pr    0.88414   0.01185   1.01091   0.00000  Uiso   1.00
O2     O     0.91531   0.20537   1.01824   0.00000  Uiso   1.00
O3     O     0.07435   0.20331   0.00738   0.00000  Uiso   1.00
O4     O     0.22337   0.06207   0.88757   0.00000  Uiso   1.00
O5     O     0.26569   0.95298   0.11585   0.00000  Uiso   1.00
O6     O     1.02428   0.92772   0.17503   0.00000  Uiso   1.00
O7     O     0.11970   1.05468   0.21694   0.00000  Uiso   1.00
C8     C     0.92974   0.01396   0.75783   0.00000  Uiso   1.00
C9     C     0.99472   0.25710   0.01194   0.00000  Uiso   1.00
C10    C     0.29245   0.00643   0.99973   0.00000  Uiso   1.00
C11    C     0.69636   0.01246   0.00645   0.00000  Uiso   1.00
C12    C    -0.00294   0.75943   1.00775   0.00000  Uiso   1.00
C13    C     0.06106   0.99209   0.26393   0.00000  Uiso   1.00
O14    O     0.07718   0.81026   0.00990   0.00000  Uiso   1.00
O15    O     0.91552   0.81475   1.00489   0.00000  Uiso   1.00
O16    O     0.76349   0.95794   0.12225   0.00000  Uiso   1.00
O17    O     0.72563   0.06742   0.89322   0.00000  Uiso   1.00
O18    O    -0.03549   0.08630   0.83845   0.00000  Uiso   1.00
O19    O     0.87307  -0.05010   0.80964   0.00000  Uiso   1.00
C20    C     0.99741   0.63186   1.00435   0.00000  Uiso   1.00
C21    C     0.07093   0.57682   0.96415   0.00000  Uiso   1.00
C22    C     0.07000   0.45402   0.97081   0.00000  Uiso   1.00
C23    C    -0.00432   0.38524   0.01118   0.00000  Uiso   1.00
C24    C     0.92214   0.44067   0.04774   0.00000  Uiso   1.00
C25    C     0.92332   0.56197   0.04515   0.00000  Uiso   1.00
O26    O     0.23364   0.59396   0.95541   0.00000  Uiso   1.00
O27    O     0.12094   0.74448   0.79667   0.00000  Uiso   1.00
N28    N     0.14477   0.64446   0.91049   0.00000  Uiso   1.00
H29    H     0.86396   0.38994   0.07983   0.00000  Uiso   1.00
H30    H     0.86619   0.60076   0.07673   0.00000  Uiso   1.00
H31    H     0.12624   0.41369   0.93895   0.00000  Uiso   1.00
C32    C     0.39529   0.00482   0.99671   0.00000  Uiso   1.00
C33    C     0.42404   0.04578  -0.13591   0.00000  Uiso   1.00
C34    C     0.52245   0.05081  -0.13075   0.00000  Uiso   1.00
C35    C     0.59306   1.01103   0.00326   0.00000  Uiso   1.00
C36    C     0.56445   0.96698   1.13368   0.00000  Uiso   1.00
C37    C     0.46677   0.96481   1.13043   0.00000  Uiso   1.00
O38    O     0.36453   0.17209  -0.38438   0.00000  Uiso   1.00
O39    O     0.29751  -0.00163   0.69633   0.00000  Uiso   1.00
N40    N     0.35559   0.07724  -0.27614   0.00000  Uiso   1.00
H41    H     0.61764   0.93544   1.23854   0.00000  Uiso   1.00
H42    H     0.44711   0.93248   1.23342   0.00000  Uiso   1.00
H43    H     0.54397   0.08203  -0.23233   0.00000  Uiso   1.00
C44    C     1.03072  -0.00935   0.39570   0.00000  Uiso   1.00
C45    C    -0.02764   0.90266   0.45883   0.00000  Uiso   1.00
C46    C    -0.06344   0.91447   0.57321   0.00000  Uiso   1.00
C47    C    -0.03841   1.00840   0.63047   0.00000  Uiso   1.00
C48    C     1.02187   0.09256   0.57097   0.00000  Uiso   1.00
C49    C     1.05538   0.08442   0.45404   0.00000  Uiso   1.00
O50    O     0.02336   0.72912   0.40792   0.00000  Uiso   1.00
O51    O     0.86857   0.75709   0.40887   0.00000  Uiso   1.00
N52    N     0.95262   0.79793   0.41398   0.00000  Uiso   1.00
H53    H     1.04269   0.16522   0.61433   0.00000  Uiso   1.00
H54    H     1.09987   0.15282   0.40781   0.00000  Uiso   1.00
H55    H    -0.10738   0.84658   0.62215   0.00000  Uiso   1.00
loop_
_geom_bond_atom_site_label_1
_geom_bond_atom_site_label_2
_geom_bond_distance
_geom_bond_site_symmetry_2
_ccdc_geom_bond_type
Pr0    O5      2.272   .     S
Pr0    O7      2.330   .     S
Pr0    O14     2.310   .     S
Pr0    O3      2.318   1_565 S
Pr0    O4      2.264   1_564 S
Pr0    O6      2.259   1_455 S
Pr0    O18     2.244   1_564 S
Pr1    O2      2.316   .     S
Pr1    O17     2.267   .     S
Pr1    O19     2.321   .     S
Pr1    O6      2.233   1_546 S
Pr1    O15     2.339   1_545 S
Pr1    O16     2.268   1_546 S
Pr1    O18     2.253   1_655 S
O2     C9      1.305   1_556 A
O3     Pr0     2.318   1_545 S
O3     C9      1.307   1_455 A
O4     C10     1.276   .     A
O4     Pr0     2.264   1_546 S
O5     C10     1.279   1_564 A
O6     Pr0     2.259   1_655 S
O6     Pr1     2.233   1_564 S
O6     C13     1.361   1_655 S
O7     C13     1.204   .     D
C8     O19     1.208   .     D
C8     O18     1.367   1_655 S
C8     C47     1.472   1_645 S
C9     O2      1.305   1_554 A
C9     O3      1.307   1_655 A
C9     C23     1.482   1_655 S
C10    C32     1.483   .     S
C10    O5      1.279   1_546 A
C11    O16     1.278   1_545 A
C11    O17     1.278   1_554 A
C11    C35     1.476   1_545 S
C12    O14     1.303   1_556 A
C12    O15     1.311   1_455 A
C12    C20     1.489   1_455 S
C13    O6      1.361   1_455 S
C13    C44     1.479   1_465 S
O14    C12     1.303   1_554 A
O15    Pr1     2.339   1_565 S
O15    C12     1.311   1_655 A
O16    Pr1     2.268   1_564 S
O16    C11     1.278   1_565 A
O17    C11     1.278   1_556 A
O18    Pr0     2.244   1_546 S
O18    Pr1     2.253   1_455 S
O18    C8      1.367   1_455 S
C20    C21     1.421   1_655 A
C20    C25     1.408   1_556 A
C20    C12     1.489   1_655 S
C21    C22     1.402   .     A
C21    N28     1.435   .     S
C21    C20     1.421   1_455 A
C22    H31     1.083   .     S
C22    C23     1.403   1_556 A
C23    C22     1.403   1_554 A
C23    C24     1.402   1_455 A
C23    C9      1.482   1_455 S
C24    C25     1.397   .     A
C24    H29     1.083   .     S
C24    C23     1.402   1_655 A
C25    H30     1.083   .     S
C25    C20     1.408   1_554 A
O26    N28     1.301   .     A
O27    N28     1.301   .     A
C32    C33     1.420   1_556 A
C32    C37     1.406   1_545 A
C33    C34     1.404   .     A
C33    N40     1.436   .     S
C33    C32     1.420   1_554 A
C34    H43     1.084   .     S
C34    C35     1.402   1_545 A
C35    C34     1.402   1_565 A
C35    C36     1.401   1_554 A
C35    C11     1.476   1_565 S
C36    C37     1.396   .     A
C36    H41     1.083   .     S
C36    C35     1.401   1_556 A
C37    H42     1.083   .     S
C37    C32     1.406   1_565 A
O38    N40     1.301   .     A
O39    N40     1.302   1_556 A
N40    O39     1.302   1_554 A
C44    C49     1.406   .     A
C44    C45     1.418   1_645 A
C44    C13     1.479   1_645 S
C45    C46     1.404   .     A
C45    C44     1.418   1_465 A
C45    N52     1.436   1_455 S
C46    C47     1.402   .     A
C46    H55     1.084   .     S
C47    C48     1.399   1_465 A
C47    C8      1.472   1_465 S
C48    C49     1.395   .     A
C48    H53     1.083   .     S
C48    C47     1.399   1_645 A
C49    H54     1.083   .     S
O50    N52     1.301   1_455 A
O51    N52     1.301   .     A
N52    C45     1.436   1_655 S
N52    O50     1.301   1_655 A
