data_pcu+N139+E183
_audit_creation_date              2023-11-17
_audit_creation_method            'Materials Studio'
_symmetry_space_group_name_H-M    'P1'
_symmetry_Int_Tables_number       1
_symmetry_cell_setting            triclinic
loop_
_symmetry_equiv_pos_as_xyz
  x,y,z
_cell_length_a                    14.7513
_cell_length_b                    11.1635
_cell_length_c                    16.9666
_cell_angle_alpha                 94.7072
_cell_angle_beta                  86.5594
_cell_angle_gamma                 33.6067
loop_
_atom_site_label
_atom_site_type_symbol
_atom_site_fract_x
_atom_site_fract_y
_atom_site_fract_z
_atom_site_U_iso_or_equiv
_atom_site_adp_type
_atom_site_occupancy
C0     C     0.05456  -0.01086   0.27572   0.00000  Uiso   1.00
Sm1    Sm    0.90762   0.02179   0.87967   0.00000  Uiso   1.00
Sm2    Sm    0.09260   0.97839   0.12053   0.00000  Uiso   1.00
C3     C     0.92149   0.25110  -0.02147   0.00000  Uiso   1.00
C4     C     0.27069   0.97076   0.07268   0.00000  Uiso   1.00
O5     O     0.07082   0.86825   0.75788   0.00000  Uiso   1.00
O6     O     0.80056   0.15906   0.77203   0.00000  Uiso   1.00
O7     O     0.10468   0.76382   0.08931   0.00000  Uiso   1.00
O8     O     1.07935   0.81982   0.96686   0.00000  Uiso   1.00
O9     O     0.69437   0.17355  -0.03623   0.00000  Uiso   1.00
O10    O     0.85751   0.88186   0.86715   0.00000  Uiso   1.00
O11    O     0.92934   0.13198   0.24231   0.00000  Uiso   1.00
O12    O     0.19959   0.84122   0.22819   0.00000  Uiso   1.00
O13    O     0.89555   0.23634   0.91088   0.00000  Uiso   1.00
O14    O    -0.07910   0.18031   0.03333   0.00000  Uiso   1.00
O15    O     0.30587   0.82660   1.03644   0.00000  Uiso   1.00
O16    O     0.14270   0.11832   0.13304   0.00000  Uiso   1.00
C17    C     0.94556   1.01120   0.72448   0.00000  Uiso   1.00
C18    C     0.07876   0.74903   1.02166   0.00000  Uiso   1.00
C19    C     0.72954   0.02940   0.92753   0.00000  Uiso   1.00
C20    C     0.04368   0.65951   0.01125   0.00000  Uiso   1.00
C21    C     0.05086   0.44004   0.96208   0.00000  Uiso   1.00
C22    C     0.94940   0.56007   0.03811   0.00000  Uiso   1.00
S23    S     0.08048   0.27116   0.90903   0.00000  Uiso   1.00
S24    S     0.85843   0.53396   0.07574   0.00000  Uiso   1.00
S25    S     0.14183   0.46616   0.92444   0.00000  Uiso   1.00
S26    S     0.91977   0.72896   0.09115   0.00000  Uiso   1.00
C27    C     0.95658   0.34061   0.98893   0.00000  Uiso   1.00
C28    C     0.36544  -0.02675   0.04603   0.00000  Uiso   1.00
C29    C     0.46027   0.07547   1.03521   0.00000  Uiso   1.00
C30    C     0.53998   0.92465  -0.03499   0.00000  Uiso   1.00
S31    S     0.49662   0.18441   1.04756   0.00000  Uiso   1.00
S32    S     0.67191   0.85315  -0.10623   0.00000  Uiso   1.00
S33    S     0.32827   0.14708   1.10643   0.00000  Uiso   1.00
S34    S     0.50361   0.81575  -0.04736   0.00000  Uiso   1.00
C35    C     0.63480   1.02688   0.95419   0.00000  Uiso   1.00
C36    C     0.03348  -0.00603   0.36216   0.00000  Uiso   1.00
C37    C     0.08466   0.91000   0.49579   0.00000  Uiso   1.00
C38    C     0.91544   0.09037   0.50443   0.00000  Uiso   1.00
S39    S     0.16427   0.80663   0.57814   0.00000  Uiso   1.00
S40    S     0.79337   0.20187   0.59706   0.00000  Uiso   1.00
S41    S     0.20674   0.79844   0.40315   0.00000  Uiso   1.00
S42    S     0.83583   0.19373   0.42207   0.00000  Uiso   1.00
C43    C     0.96661   1.00641   0.63805   0.00000  Uiso   1.00
loop_
_geom_bond_atom_site_label_1
_geom_bond_atom_site_label_2
_geom_bond_distance
_geom_bond_site_symmetry_2
_ccdc_geom_bond_type
C0     C36     1.468   .     S
C0     O11     1.282   1_455 A
C0     O12     1.282   1_545 A
Sm1    O6      2.225   .     S
Sm1    O13     2.263   .     S
Sm1    O5      2.225   1_645 S
Sm1    O8      2.274   1_545 S
Sm1    O9      2.234   1_556 S
Sm1    O10     2.218   1_545 S
Sm2    O7      2.263   .     S
Sm2    O12     2.225   .     S
Sm2    O11     2.225   1_465 S
Sm2    O14     2.274   1_565 S
Sm2    O15     2.234   1_554 S
Sm2    O16     2.218   1_565 S
C3     O13     1.272   1_554 A
C3     O14     1.273   1_655 A
C3     C27     1.463   1_554 S
C4     O15     1.283   1_554 A
C4     O16     1.280   1_565 A
C4     C28     1.466   1_565 S
O5     Sm1     2.225   1_465 S
O5     C17     1.282   1_455 A
O6     C17     1.282   1_545 A
O7     C18     1.272   1_554 A
O8     Sm1     2.274   1_565 S
O8     C18     1.273   1_655 A
O9     Sm1     2.234   1_554 S
O9     C19     1.283   1_554 A
O10    Sm1     2.218   1_565 S
O10    C19     1.280   1_565 A
O11    C0      1.282   1_655 A
O11    Sm2     2.225   1_645 S
O12    C0      1.282   1_565 A
O13    C3      1.272   1_556 A
O14    Sm2     2.274   1_545 S
O14    C3      1.273   1_455 A
O15    Sm2     2.234   1_556 S
O15    C4      1.283   1_556 A
O16    Sm2     2.218   1_545 S
O16    C4      1.280   1_545 A
C17    C43     1.468   .     S
C17    O5      1.282   1_655 A
C17    O6      1.282   1_565 A
C18    O7      1.272   1_556 A
C18    O8      1.273   1_455 A
C18    C20     1.463   1_556 S
C19    O9      1.283   1_556 A
C19    O10     1.280   1_545 A
C19    C35     1.466   1_545 S
C20    S25     1.715   1_554 A
C20    S26     1.717   1_455 A
C20    C18     1.463   1_554 S
C21    S23     1.690   .     A
C21    S25     1.695   .     A
C21    C22     1.358   1_456 A
C22    S24     1.695   .     A
C22    S26     1.690   .     A
C22    C21     1.358   1_654 A
S23    C27     1.717   1_455 A
S24    C27     1.715   1_554 A
S25    C20     1.715   1_556 A
S26    C20     1.717   1_655 A
C27    S23     1.717   1_655 A
C27    S24     1.715   1_556 A
C27    C3      1.463   1_556 S
C28    S33     1.718   1_554 A
C28    S34     1.715   1_545 A
C28    C4      1.466   1_545 S
C29    S31     1.694   .     A
C29    S33     1.690   .     A
C29    C30     1.357   1_546 A
C30    S32     1.690   .     A
C30    S34     1.694   .     A
C30    C29     1.357   1_564 A
S31    C35     1.715   1_545 A
S32    C35     1.718   1_554 A
S33    C28     1.718   1_556 A
S34    C28     1.715   1_565 A
C35    S31     1.715   1_565 A
C35    S32     1.718   1_556 A
C35    C19     1.466   1_565 S
C36    S41     1.718   1_545 A
C36    S42     1.717   1_455 A
C37    S39     1.693   .     A
C37    S41     1.693   .     A
C37    C38     1.357   1_465 A
C38    S40     1.693   .     A
C38    S42     1.693   .     A
C38    C37     1.357   1_645 A
S39    C43     1.717   1_455 A
S40    C43     1.717   1_545 A
S41    C36     1.718   1_565 A
S42    C36     1.717   1_655 A
C43    S39     1.717   1_655 A
C43    S40     1.717   1_565 A
