data_pcu+N123+E191
_audit_creation_date              2023-11-17
_audit_creation_method            'Materials Studio'
_symmetry_space_group_name_H-M    'P1'
_symmetry_Int_Tables_number       1
_symmetry_cell_setting            triclinic
loop_
_symmetry_equiv_pos_as_xyz
  x,y,z
_cell_length_a                    20.7763
_cell_length_b                    17.9973
_cell_length_c                    16.2918
_cell_angle_alpha                 108.2349
_cell_angle_beta                  109.3932
_cell_angle_gamma                 91.1694
loop_
_atom_site_label
_atom_site_type_symbol
_atom_site_fract_x
_atom_site_fract_y
_atom_site_fract_z
_atom_site_U_iso_or_equiv
_atom_site_adp_type
_atom_site_occupancy
Ce0    Ce    0.07656   1.00156   0.99758   0.00000  Uiso   1.00
Ce1    Ce    0.92369  -0.00145   0.00271   0.00000  Uiso   1.00
C2     C     0.94159   0.99516   0.84056   0.00000  Uiso   1.00
C3     C     0.20655   1.00158   0.99857   0.00000  Uiso   1.00
C4     C     0.99920   0.83877  -0.00123   0.00000  Uiso   1.00
C5     C     0.05863   0.00466   0.15959   0.00000  Uiso   1.00
C6     C     0.79375  -0.00125   0.00193   0.00000  Uiso   1.00
C7     C     0.00097   0.16126   1.00132   0.00000  Uiso   1.00
O8     O     0.90471   0.03609   0.87277   0.00000  Uiso   1.00
O9     O    -0.02936   0.94999   0.89288   0.00000  Uiso   1.00
O10    O     0.15407   0.96701   0.92589   0.00000  Uiso   1.00
O11    O     0.19260   1.03623   0.07082   0.00000  Uiso   1.00
O12    O     0.05486   0.87408  -0.00124   0.00000  Uiso   1.00
O13    O     0.94433   0.87194   0.00129   0.00000  Uiso   1.00
O14    O     0.09544   0.96368   0.12726   0.00000  Uiso   1.00
O15    O     1.02964   0.04998   0.10744   0.00000  Uiso   1.00
O16    O     0.84630   0.03304   0.07462   0.00000  Uiso   1.00
O17    O     0.80761  -0.03581   0.92957   0.00000  Uiso   1.00
O18    O     0.94536   0.12599   1.00153   0.00000  Uiso   1.00
O19    O     0.05581   0.12806   0.99872   0.00000  Uiso   1.00
Ni20   Ni    0.00005   0.49998  -0.00005   0.00000  Uiso   1.00
C21    C     0.99923   0.75628  -0.00151   0.00000  Uiso   1.00
C22    C     0.94145   0.71524  -0.00022   0.00000  Uiso   1.00
C23    C     0.94281   0.63775   0.00010   0.00000  Uiso   1.00
C24    C     0.05632   0.64006   0.99794   0.00000  Uiso   1.00
C25    C     0.05724   0.71757   0.99755   0.00000  Uiso   1.00
H26    H     0.89715   0.25318   0.00322   0.00000  Uiso   1.00
H27    H     0.10456   0.25747   0.99956   0.00000  Uiso   1.00
H28    H     0.10165   0.39406   0.99892   0.00000  Uiso   1.00
H29    H     0.89924   0.38988   0.00249   0.00000  Uiso   1.00
N30    N     0.00043   0.39795   1.00069   0.00000  Uiso   1.00
N31    N     0.99968   0.60203  -0.00076   0.00000  Uiso   1.00
H32    H     0.89563   0.74258   0.00061   0.00000  Uiso   1.00
H33    H     0.89850   0.60594   0.00113   0.00000  Uiso   1.00
H34    H     0.10083   0.61004   0.99727   0.00000  Uiso   1.00
H35    H     0.10295   0.74676   0.99662   0.00000  Uiso   1.00
C36    C     0.00091   0.24372   1.00152   0.00000  Uiso   1.00
C37    C     0.05869   0.28477   1.00027   0.00000  Uiso   1.00
C38    C     0.05732   0.36224   0.99990   0.00000  Uiso   1.00
C39    C     0.94377   0.35989   0.00190   0.00000  Uiso   1.00
C40    C     0.94287   0.28239   0.00235   0.00000  Uiso   1.00
Ni41   Ni    0.50022   0.00093   0.00039   0.00000  Uiso   1.00
C42    C     0.27770   0.00145  -0.00101   0.00000  Uiso   1.00
C43    C     0.33378   1.03994   0.08071   0.00000  Uiso   1.00
C44    C     0.40071   1.03915   0.07956   0.00000  Uiso   1.00
C45    C     0.35816  -0.03647   0.91968   0.00000  Uiso   1.00
C46    C     0.29039  -0.03717   0.91769   0.00000  Uiso   1.00
H47    H     0.75233   1.06345   0.14863   0.00000  Uiso   1.00
H48    H     0.67388  -0.06471   0.85444   0.00000  Uiso   1.00
H49    H     0.55577  -0.06220   0.85710   0.00000  Uiso   1.00
H50    H     0.63247   1.06304   0.14473   0.00000  Uiso   1.00
N51    N     0.58892   0.00045   1.00089   0.00000  Uiso   1.00
N52    N     0.41150   1.00129  -0.00018   0.00000  Uiso   1.00
H53    H     0.32602   1.07034   0.14477   0.00000  Uiso   1.00
H54    H     0.44420   1.06867   0.14228   0.00000  Uiso   1.00
H55    H     0.36837  -0.06615   0.85732   0.00000  Uiso   1.00
H56    H     0.24845  -0.06754   0.85330   0.00000  Uiso   1.00
C57    C     0.72263   0.99921   1.00159   0.00000  Uiso   1.00
C58    C     0.66633  -0.03635   0.91915   0.00000  Uiso   1.00
C59    C     0.59945  -0.03498   0.92038   0.00000  Uiso   1.00
C60    C     0.64248   1.03535   0.08174   0.00000  Uiso   1.00
C61    C     0.71020   1.03546   0.08367   0.00000  Uiso   1.00
Ni62   Ni   -0.00000  -0.00034   0.49991   0.00000  Uiso   1.00
C63    C     0.04552   1.00418   0.24289   0.00000  Uiso   1.00
C64    C     0.07594   0.95355   0.29040   0.00000  Uiso   1.00
C65    C     0.06153   0.95325   0.36817   0.00000  Uiso   1.00
C66    C     0.98815   0.05116   0.35269   0.00000  Uiso   1.00
C67    C     1.00116   0.05341   0.27465   0.00000  Uiso   1.00
H68    H     0.02386   0.90705   0.76109   0.00000  Uiso   1.00
H69    H     0.88959   0.08474   0.73211   0.00000  Uiso   1.00
H70    H     0.91496   0.08459   0.59417   0.00000  Uiso   1.00
H71    H     0.04650   0.91097   0.62274   0.00000  Uiso   1.00
N72    N     0.98171  -0.00222   0.60234   0.00000  Uiso   1.00
N73    N     0.01829   1.00156   0.39750   0.00000  Uiso   1.00
H74    H     0.11017   0.91446   0.26744   0.00000  Uiso   1.00
H75    H     0.08465   0.91434   0.40519   0.00000  Uiso   1.00
H76    H     0.95389   0.08882   0.37760   0.00000  Uiso   1.00
H77    H     0.97664   0.09298   0.23941   0.00000  Uiso   1.00
C78    C     0.95465  -0.00451   0.75718   0.00000  Uiso   1.00
C79    C     0.92397   0.04579   0.70934   0.00000  Uiso   1.00
C80    C     0.93829   0.04593   0.63145   0.00000  Uiso   1.00
C81    C     0.01210   0.94851   0.64747   0.00000  Uiso   1.00
C82    C    -0.00083   0.94640   0.72561   0.00000  Uiso   1.00
loop_
_geom_bond_atom_site_label_1
_geom_bond_atom_site_label_2
_geom_bond_distance
_geom_bond_site_symmetry_2
_ccdc_geom_bond_type
Ce0    O9      2.246   .     S
Ce0    O10     2.276   .     S
Ce0    O11     2.278   1_556 S
Ce0    O12     2.336   1_556 S
Ce0    O14     2.333   1_556 S
Ce0    O15     2.265   1_466 S
Ce0    O19     2.321   1_565 S
Ce1    O15     2.247   .     S
Ce1    O16     2.276   .     S
Ce1    O8      2.333   1_554 S
Ce1    O9      2.266   1_644 S
Ce1    O13     2.322   1_545 S
Ce1    O17     2.278   1_554 S
Ce1    O18     2.336   1_554 S
C2     O8      1.205   1_565 D
C2     O9      1.365   1_655 S
C2     C78     1.473   1_565 S
C3     O10     1.278   .     A
C3     O11     1.278   1_556 A
C3     C42     1.476   1_566 S
C4     O13     1.304   .     A
C4     C21     1.483   .     S
C4     O12     1.308   1_655 A
C5     O14     1.206   1_545 D
C5     O15     1.365   1_455 S
C5     C63     1.473   1_545 S
C6     O16     1.277   .     A
C6     O17     1.278   1_554 A
C6     C57     1.476   1_544 S
C7     O19     1.304   .     A
C7     C36     1.483   .     S
C7     O18     1.308   1_455 A
O8     Ce1     2.333   1_556 S
O8     C2      1.205   1_545 D
O9     Ce1     2.266   1_466 S
O9     C2      1.365   1_455 S
O11    Ce0     2.278   1_554 S
O11    C3      1.278   1_554 A
O12    Ce0     2.336   1_554 S
O12    C4      1.308   1_455 A
O13    Ce1     2.322   1_565 S
O14    Ce0     2.333   1_554 S
O14    C5      1.206   1_565 D
O15    Ce0     2.265   1_644 S
O15    C5      1.365   1_655 S
O17    Ce1     2.278   1_556 S
O17    C6      1.278   1_556 A
O18    Ce1     2.336   1_556 S
O18    C7      1.308   1_655 A
O19    Ce0     2.321   1_545 S
Ni20   N30     1.840   1_554 S
Ni20   N31     1.840   1_455 S
C21    C22     1.406   .     A
C21    C25     1.406   1_654 A
C22    C23     1.397   .     A
C22    H32     1.083   .     S
C23    N31     1.359   .     A
C23    H33     1.082   .     S
C24    C25     1.397   .     A
C24    H34     1.082   .     S
C24    N31     1.359   1_456 A
C25    H35     1.083   .     S
C25    C21     1.406   1_456 A
H26    C40     1.083   .     S
H27    C37     1.083   .     S
H28    C38     1.082   .     S
H29    C39     1.082   .     S
N30    C38     1.359   .     A
N30    Ni20    1.840   1_556 S
N30    C39     1.359   1_456 A
N31    Ni20    1.840   1_655 S
N31    C24     1.359   1_654 A
C36    C37     1.406   .     A
C36    C40     1.406   1_456 A
C37    C38     1.397   .     A
C39    C40     1.397   .     A
C39    N30     1.359   1_654 A
C40    C36     1.406   1_654 A
Ni41   N51     1.840   1_554 S
Ni41   N52     1.840   1_545 S
C42    C43     1.403   1_545 A
C42    C46     1.404   1_554 A
C42    C3      1.476   1_544 S
C43    C44     1.397   .     A
C43    H53     1.083   .     S
C43    C42     1.403   1_565 A
C44    N52     1.359   .     A
C44    H54     1.082   .     S
C45    C46     1.397   .     A
C45    H55     1.082   .     S
C45    N52     1.359   1_546 A
C46    H56     1.083   .     S
C46    C42     1.404   1_556 A
H47    C61     1.083   .     S
H48    C58     1.083   .     S
H49    C59     1.082   .     S
H50    C60     1.082   .     S
N51    C59     1.359   .     A
N51    Ni41    1.840   1_556 S
N51    C60     1.359   1_546 A
N52    Ni41    1.840   1_565 S
N52    C45     1.359   1_564 A
C57    C58     1.404   1_565 A
C57    C61     1.404   1_556 A
C57    C6      1.476   1_566 S
C58    C59     1.397   .     A
C58    C57     1.404   1_545 A
C60    C61     1.397   .     A
C60    N51     1.359   1_564 A
C61    C57     1.404   1_554 A
Ni62   N72     1.840   1_455 S
Ni62   N73     1.840   1_545 S
C63    C64     1.403   .     A
C63    C67     1.402   1_465 A
C63    C5      1.473   1_565 S
C64    C65     1.397   .     A
C64    H74     1.083   .     S
C65    N73     1.360   .     A
C65    H75     1.082   .     S
C66    C67     1.397   .     A
C66    H76     1.082   .     S
C66    N73     1.360   1_645 A
C67    H77     1.083   .     S
C67    C63     1.402   1_645 A
H68    C82     1.083   .     S
H69    C79     1.083   .     S
H70    C80     1.082   .     S
H71    C81     1.082   .     S
N72    C80     1.360   .     A
N72    Ni62    1.840   1_655 S
N72    C81     1.360   1_645 A
N73    Ni62    1.840   1_565 S
N73    C66     1.360   1_465 A
C78    C79     1.403   .     A
C78    C82     1.402   1_645 A
C78    C2      1.473   1_545 S
C79    C80     1.397   .     A
C81    C82     1.397   .     A
C81    N72     1.360   1_465 A
C82    C78     1.402   1_465 A
