data_pcu+N173+E161
_audit_creation_date              2023-11-17
_audit_creation_method            'Materials Studio'
_symmetry_space_group_name_H-M    'P1'
_symmetry_Int_Tables_number       1
_symmetry_cell_setting            triclinic
loop_
_symmetry_equiv_pos_as_xyz
  x,y,z
_cell_length_a                    23.1843
_cell_length_b                    26.6983
_cell_length_c                    23.2503
_cell_angle_alpha                 121.8289
_cell_angle_beta                  97.8935
_cell_angle_gamma                 48.4470
loop_
_atom_site_label
_atom_site_type_symbol
_atom_site_fract_x
_atom_site_fract_y
_atom_site_fract_z
_atom_site_U_iso_or_equiv
_atom_site_adp_type
_atom_site_occupancy
Gd0    Gd    0.09213   0.85666   0.93497   0.00000  Uiso   1.00
Gd1    Gd    0.92620   0.12902   0.05641   0.00000  Uiso   1.00
O2     O     0.85558   0.09524   0.01953   0.00000  Uiso   1.00
O3     O     0.95774   0.96345   0.97250   0.00000  Uiso   1.00
O4     O     1.04138   0.91183   0.87357   0.00000  Uiso   1.00
O5     O     0.02139   0.02230   0.94531   0.00000  Uiso   1.00
O6     O     0.12490   0.78883   0.98029   0.00000  Uiso   1.00
O7     O     1.04602   0.80069   0.91723   0.00000  Uiso   1.00
O8     O     0.16819   0.88414   0.95572   0.00000  Uiso   1.00
C9     C     0.08236   0.77328   0.95407   0.00000  Uiso   1.00
O10    O     0.06375   0.01864   0.01212   0.00000  Uiso   1.00
O11    O     0.02993   0.94746   0.05493   0.00000  Uiso   1.00
C12    C     1.01935  -0.02362   0.88747   0.00000  Uiso   1.00
O13    O     0.95068   0.08553   0.12448   0.00000  Uiso   1.00
O14    O     0.90544   0.19641   1.01576   0.00000  Uiso   1.00
O15    O    -0.02962   0.18942   0.09109   0.00000  Uiso   1.00
C16    C     0.88173   0.02587  -0.00559   0.00000  Uiso   1.00
C17    C     0.94288   0.21504   0.05174   0.00000  Uiso   1.00
C18    C    -0.01317   1.01827   0.11571   0.00000  Uiso   1.00
C19    C     0.14117   0.95494   0.98656   0.00000  Uiso   1.00
H20    H    -0.10664   0.27097   0.96982   0.00000  Uiso   1.00
C21    C     0.07441   0.72883   0.96608   0.00000  Uiso   1.00
C22    C     0.10995   0.70570   0.01180   0.00000  Uiso   1.00
C23    C     0.10091   0.66499   0.02450   0.00000  Uiso   1.00
C24    C     0.05599   0.64668  -0.00955   0.00000  Uiso   1.00
C25    C     0.02069   0.66926   0.94394   0.00000  Uiso   1.00
C26    C     1.03029   0.71005   0.93220   0.00000  Uiso   1.00
C27    C     0.13892   0.64141   0.07431   0.00000  Uiso   1.00
C28    C     0.97308   0.64965   0.90668   0.00000  Uiso   1.00
C29    C     0.98052   0.64692   0.05349   0.00000  Uiso   1.00
C30    C     0.96842   0.60554   0.06155   0.00000  Uiso   1.00
C31    C     0.02694   0.51837   0.01566   0.00000  Uiso   1.00
C32    C     0.09684   0.47403   0.96333   0.00000  Uiso   1.00
C33    C     0.10605   0.51814   0.95705   0.00000  Uiso   1.00
C34    C     0.89909   0.64906   0.11363   0.00000  Uiso   1.00
C35    C     0.88740   0.60669   0.11952   0.00000  Uiso   1.00
C36    C     0.94489   0.51980   0.07346   0.00000  Uiso   1.00
C37    C     0.01524   0.47542   0.02168   0.00000  Uiso   1.00
C38    C     0.07367   0.38819   0.97559   0.00000  Uiso   1.00
C39    C     0.14361   0.34461   0.92417   0.00000  Uiso   1.00
C40    C     0.15504   0.38705   0.91805   0.00000  Uiso   1.00
C41    C     0.93403   0.47581   0.07778   0.00000  Uiso   1.00
C42    C     0.06025   0.34692   0.98211   0.00000  Uiso   1.00
C43    C    -0.02168   0.34769   0.03790   0.00000  Uiso   1.00
C44    C     0.05135   0.34320   0.13064   0.00000  Uiso   1.00
C45    C    -0.00533   0.28134   0.08914   0.00000  Uiso   1.00
C46    C    -0.09352   0.35234   0.94551   0.00000  Uiso   1.00
C47    C    -0.07486   0.28563   1.00162   0.00000  Uiso   1.00
C48    C    -0.06278   0.32814   0.99605   0.00000  Uiso   1.00
C49    C     0.00693   0.32430   0.08495   0.00000  Uiso   1.00
C50    C    -0.04579   0.26147   0.04757   0.00000  Uiso   1.00
H51    H    -0.04150   0.32228   0.90455   0.00000  Uiso   1.00
N52    N     0.04784   0.60296   0.00127   0.00000  Uiso   1.00
N53    N    -0.00888   0.39110   0.03231   0.00000  Uiso   1.00
H54    H     0.86254   0.42051   0.97603   0.00000  Uiso   1.00
H55    H     0.14429   0.71994   0.03796   0.00000  Uiso   1.00
H56    H     1.00399   0.72644   0.89591   0.00000  Uiso   1.00
H57    H     0.17168   0.66054   0.09690   0.00000  Uiso   1.00
H58    H     0.09075   0.67197   0.11957   0.00000  Uiso   1.00
H59    H     0.18355   0.57322   0.04475   0.00000  Uiso   1.00
H60    H     0.91963   0.68137   0.94726   0.00000  Uiso   1.00
H61    H     0.95015   0.67060   0.87149   0.00000  Uiso   1.00
H62    H     0.01247   0.58191   0.87308   0.00000  Uiso   1.00
O63    O     0.17273   0.47610   0.90528   0.00000  Uiso   1.00
O64    O     0.92388   0.73182   0.09723   0.00000  Uiso   1.00
H65    H     0.85351   0.71598   0.14983   0.00000  Uiso   1.00
H66    H     0.20930   0.35155   0.87748   0.00000  Uiso   1.00
H67    H     0.83312   0.64225   0.16017   0.00000  Uiso   1.00
H68    H     0.11428   0.28465   0.11501   0.00000  Uiso   1.00
H69    H     1.05583   0.37948   0.12524   0.00000  Uiso   1.00
H70    H     1.01686   0.26344   0.12518   0.00000  Uiso   1.00
H71    H     0.18933   0.27769   0.88820   0.00000  Uiso   1.00
H72    H    -0.12507   0.33325   0.91717   0.00000  Uiso   1.00
O73    O     0.11635   0.26207   0.93778   0.00000  Uiso   1.00
O74    O     0.86594   0.51795   0.12796   0.00000  Uiso   1.00
H75    H     1.01899   0.37917   0.18789   0.00000  Uiso   1.00
H76    H     0.72069   0.14865   0.06941   0.00000  Uiso   1.00
C77    C     0.19954   0.96206   0.98900   0.00000  Uiso   1.00
C78    C     0.27792   0.89355   0.93714   0.00000  Uiso   1.00
C79    C     0.33452   0.89833   0.93696   0.00000  Uiso   1.00
C80    C     0.31222   0.97328  -0.01055   0.00000  Uiso   1.00
C81    C     0.23366   0.04241   0.04230   0.00000  Uiso   1.00
C82    C     0.17786   0.03623   0.04152   0.00000  Uiso   1.00
C83    C     0.41840   0.82354   0.88086   0.00000  Uiso   1.00
C84    C     0.20954   0.12233   0.09919   0.00000  Uiso   1.00
C85    C     0.37656   0.99566   0.94518   0.00000  Uiso   1.00
C86    C     0.43384   0.99928   0.94238   0.00000  Uiso   1.00
C87    C     0.48352   0.98628   0.98579   0.00000  Uiso   1.00
C88    C     0.47552   0.96963   0.03090   0.00000  Uiso   1.00
C89    C     0.41804   0.96567   0.03127   0.00000  Uiso   1.00
C90    C     0.44248   1.01565   0.89746   0.00000  Uiso   1.00
C91    C     0.49964   1.01919   0.89573   0.00000  Uiso   1.00
C92    C     0.54923   1.00673   0.93906   0.00000  Uiso   1.00
C93    C     0.54121   0.99012   0.98420   0.00000  Uiso   1.00
C94    C     0.59037   0.97784   0.02811   0.00000  Uiso   1.00
C95    C     0.58188   0.96125   0.07288   0.00000  Uiso   1.00
C96    C     0.52519   0.95703   0.07416   0.00000  Uiso   1.00
C97    C     0.60675   1.01062   0.93864   0.00000  Uiso   1.00
C98    C     0.64658   0.98292   0.02627   0.00000  Uiso   1.00
C99    C     0.71051   1.00572   0.98235   0.00000  Uiso   1.00
C100   C     0.82389   0.85028   0.88490   0.00000  Uiso   1.00
C101   C     0.84817   0.94176   0.94042   0.00000  Uiso   1.00
C102   C     0.59691   0.16003   0.07863   0.00000  Uiso   1.00
C103   C     0.74072   0.08909   0.03232   0.00000  Uiso   1.00
C104   C     0.68447   0.08335   0.02987   0.00000  Uiso   1.00
C105   C     0.79287   0.93455   0.93684   0.00000  Uiso   1.00
C106   C     0.82295   1.01851   0.98858   0.00000  Uiso   1.00
H107   H     0.58096   0.15315   0.11517   0.00000  Uiso   1.00
N108   N     0.36981   0.97895  -0.01094   0.00000  Uiso   1.00
N109   N     0.65352   0.99929   0.98216   0.00000  Uiso   1.00
H110   H     0.55569   0.16985   0.04615   0.00000  Uiso   1.00
H111   H     0.29462   0.83639   0.89610   0.00000  Uiso   1.00
H112   H     0.11812   0.08874   0.08258   0.00000  Uiso   1.00
H113   H     0.42651   0.76946   0.84451   0.00000  Uiso   1.00
H114   H     0.42807   0.83722   0.84770   0.00000  Uiso   1.00
H115   H     0.46557   0.80651   0.90729   0.00000  Uiso   1.00
H116   H     0.21177   0.14629   0.07345   0.00000  Uiso   1.00
H117   H     0.14708   0.16966   0.13752   0.00000  Uiso   1.00
H118   H     0.25235   0.11180   0.13010   0.00000  Uiso   1.00
O119   O     0.41049   0.94797   0.07388   0.00000  Uiso   1.00
O120   O     0.32737   1.00862   0.90349   0.00000  Uiso   1.00
H121   H     0.40502   1.02585   0.86358   0.00000  Uiso   1.00
H122   H     0.52055   0.94378   0.10908   0.00000  Uiso   1.00
H123   H     0.50447   1.03215   0.86064   0.00000  Uiso   1.00
H124   H     0.86602   0.81139   0.90314   0.00000  Uiso   1.00
H125   H     0.77447   0.85210   0.88065   0.00000  Uiso   1.00
H126   H     0.91070   0.88735   0.90450   0.00000  Uiso   1.00
H127   H     0.61912   0.95130   0.10691   0.00000  Uiso   1.00
H128   H     0.58608   0.21596   0.11200   0.00000  Uiso   1.00
O129   O     0.69436   0.97200   0.06924   0.00000  Uiso   1.00
O130   O     0.61573   0.02634   0.89475   0.00000  Uiso   1.00
H131   H     0.85684   0.82150   0.83060   0.00000  Uiso   1.00
H132   H     0.03665   0.87468   0.75165   0.00000  Uiso   1.00
C133   C    -0.02102   0.02234   0.18074   0.00000  Uiso   1.00
C134   C     0.94554   0.09426   0.24968   0.00000  Uiso   1.00
C135   C     0.94070   0.09744   0.31122   0.00000  Uiso   1.00
C136   C    -0.03062   0.02777   0.30397   0.00000  Uiso   1.00
C137   C     0.00097   0.95613   0.23515   0.00000  Uiso   1.00
C138   C     0.00551   0.95403   0.17428   0.00000  Uiso   1.00
C139   C     0.90589   0.17470   0.38434   0.00000  Uiso   1.00
C140   C     0.03042   0.88177   0.22653   0.00000  Uiso   1.00
C141   C     0.90371   0.05463   0.40296   0.00000  Uiso   1.00
C142   C     0.90433   0.05316   0.46264   0.00000  Uiso   1.00
C143   C    -0.02572   0.02377   0.48380   0.00000  Uiso   1.00
C144   C     0.04177  -0.00267   0.44576   0.00000  Uiso   1.00
C145   C     0.03816   0.00030   0.38673   0.00000  Uiso   1.00
C146   C     0.83727   0.07969   0.50123   0.00000  Uiso   1.00
C147   C     0.83981   0.07661   0.55975   0.00000  Uiso   1.00
C148   C     0.90956   0.04667   0.58086   0.00000  Uiso   1.00
C149   C     0.97699   0.02031   0.54281   0.00000  Uiso   1.00
C150   C     0.04733  -0.00996   0.56336   0.00000  Uiso   1.00
C151   C     0.11405  -0.03561   0.52536   0.00000  Uiso   1.00
C152   C     0.11127  -0.03196   0.46720   0.00000  Uiso   1.00
C153   C     0.91391   0.04215   0.63910   0.00000  Uiso   1.00
C154   C     0.04918  -0.01414   0.62141   0.00000  Uiso   1.00
C155   C     0.98732   0.00571   0.71668   0.00000  Uiso   1.00
C156   C     0.94636   0.14349   0.80168   0.00000  Uiso   1.00
C157   C     0.98332   0.05696   0.84047   0.00000  Uiso   1.00
C158   C     0.03044   0.86782   0.63124   0.00000  Uiso   1.00
C159   C     0.01879   0.92837   0.76133   0.00000  Uiso   1.00
C160   C     0.01120   0.93568   0.70467   0.00000  Uiso   1.00
C161   C     0.97215   0.06735   0.78549   0.00000  Uiso   1.00
C162   C     1.00570  -0.01166   0.82957   0.00000  Uiso   1.00
H163   H     0.08107   0.84158   0.59193   0.00000  Uiso   1.00
N164   N    -0.02987   0.02804   0.36623   0.00000  Uiso   1.00
N165   N     0.98322   0.01155   0.65780   0.00000  Uiso   1.00
H166   H    -0.02448   0.89309   0.61436   0.00000  Uiso   1.00
H167   H     0.92427   0.14775   0.25573   0.00000  Uiso   1.00
H168   H     0.03018   0.89863   0.12175   0.00000  Uiso   1.00
H169   H     0.88758   0.22318   0.38095   0.00000  Uiso   1.00
H170   H     0.85111   0.20018   0.41713   0.00000  Uiso   1.00
H171   H     0.95236   0.16013   0.41170   0.00000  Uiso   1.00
H172   H    -0.02002   0.89966   0.25718   0.00000  Uiso   1.00
H173   H     0.05097   0.83178   0.16951   0.00000  Uiso   1.00
H174   H     0.08259   0.85684   0.24676   0.00000  Uiso   1.00
O175   O     0.10341  -0.02537   0.34896   0.00000  Uiso   1.00
O176   O     0.83645   1.08236   0.38113   0.00000  Uiso   1.00
H177   H     0.78275   1.10267   0.48621   0.00000  Uiso   1.00
H178   H     0.16388  -0.05255   0.43891   0.00000  Uiso   1.00
H179   H     0.78707   1.09754   0.58827   0.00000  Uiso   1.00
H180   H     0.99413   0.14321   0.81641   0.00000  Uiso   1.00
H181   H     0.93680   0.14747   0.75570   0.00000  Uiso   1.00
H182   H     0.97596   0.10216   0.89131   0.00000  Uiso   1.00
H183   H     0.16868  -0.05881   0.54029   0.00000  Uiso   1.00
H184   H     0.04953   0.81672   0.63052   0.00000  Uiso   1.00
O185   O     0.11761  -0.04437   0.64164   0.00000  Uiso   1.00
O186   O     0.84863   1.06819   0.67726   0.00000  Uiso   1.00
H187   H     0.88814   0.19955   0.84739   0.00000  Uiso   1.00
loop_
_geom_bond_atom_site_label_1
_geom_bond_atom_site_label_2
_geom_bond_distance
_geom_bond_site_symmetry_2
_ccdc_geom_bond_type
Gd0    O6      2.221   .     S
Gd0    O8      2.234   .     S
Gd0    O3      2.222   1_455 S
Gd0    O4      2.247   1_455 S
Gd0    O7      2.212   1_455 S
Gd0    O11     2.252   1_556 S
Gd1    O2      2.233   .     S
Gd1    O13     2.234   .     S
Gd1    O5      2.263   1_654 S
Gd1    O10     2.269   1_655 S
Gd1    O14     2.210   1_554 S
Gd1    O15     2.212   1_655 S
O2     C16     1.267   .     A
O3     Gd0     2.222   1_655 S
O3     C16     1.264   1_566 A
O4     Gd0     2.247   1_655 S
O4     C12     1.275   1_565 A
O5     Gd1     2.263   1_456 S
O5     C12     1.278   1_455 A
O6     C9      1.276   .     A
O7     Gd0     2.212   1_655 S
O7     C9      1.274   1_655 A
O8     C19     1.266   .     A
C9     C21     1.475   .     S
C9     O7      1.274   1_455 A
O10    Gd1     2.269   1_455 S
O10    C19     1.282   1_544 A
O11    C18     1.278   .     A
O11    Gd0     2.252   1_554 S
C12    C162    1.489   .     S
C12    O4      1.275   1_545 A
C12    O5      1.278   1_655 A
O13    C18     1.278   1_645 A
O14    Gd1     2.210   1_556 S
O14    C17     1.279   1_556 A
O15    Gd1     2.212   1_455 S
O15    C17     1.278   1_455 A
C16    O3      1.264   1_544 A
C16    C106    1.480   1_544 S
C17    O14     1.279   1_554 A
C17    O15     1.278   1_655 A
C17    C50     1.477   1_655 S
C18    O13     1.278   1_465 A
C18    C133    1.486   1_565 S
C19    C77     1.476   .     S
C19    O10     1.282   1_566 A
H20    C47     1.082   .     S
C21    C22     1.402   1_556 A
C21    C26     1.400   1_455 A
C22    C23     1.404   .     A
C22    H55     1.083   .     S
C22    C21     1.402   1_554 A
C23    C24     1.411   .     A
C23    C27     1.506   .     S
C24    N52     1.441   .     S
C24    C25     1.411   1_554 A
C25    C24     1.411   1_556 A
C25    C26     1.401   1_455 A
C25    C28     1.506   1_455 S
C26    H56     1.081   .     S
C26    C21     1.400   1_655 A
C26    C25     1.401   1_655 A
C27    H57     1.111   .     S
C27    H58     1.109   .     S
C27    H59     1.111   .     S
C28    H60     1.109   .     S
C28    H61     1.111   .     S
C28    C25     1.506   1_655 S
C28    H62     1.109   1_655 S
C29    C30     1.407   .     A
C29    O64     1.372   .     S
C29    N52     1.369   1_655 A
C30    C34     1.405   .     A
C30    C31     1.409   1_655 A
C31    C37     1.414   .     A
C31    C30     1.409   1_455 A
C31    C32     1.409   1_554 A
C32    C33     1.406   .     A
C32    C40     1.406   .     A
C32    C31     1.409   1_556 A
C33    O63     1.372   .     S
C33    N52     1.370   1_556 A
C34    C35     1.397   .     A
C34    H65     1.082   .     S
C35    C36     1.405   .     A
C35    H67     1.083   .     S
C36    C41     1.406   .     A
C36    C37     1.409   1_655 A
C37    C36     1.409   1_455 A
C37    C38     1.410   1_554 A
C38    C39     1.405   .     A
C38    C42     1.406   .     A
C38    C37     1.410   1_556 A
C39    C40     1.398   .     A
C39    H71     1.082   .     S
C40    H66     1.082   .     S
C41    O74     1.373   .     S
C41    N53     1.370   1_655 A
C42    O73     1.372   .     S
C42    N53     1.370   1_556 A
C43    C49     1.414   .     A
C43    N53     1.440   .     S
C43    C48     1.413   1_554 A
C44    C49     1.506   .     S
C44    H68     1.107   .     S
C44    H69     1.109   1_455 S
C44    H75     1.108   1_455 S
C45    C49     1.401   .     A
C45    C50     1.402   .     A
C45    H70     1.083   1_455 S
C46    C48     1.505   .     S
C46    H51     1.110   .     S
C46    H72     1.112   .     S
C46    H54     1.109   1_455 S
C47    C48     1.403   .     A
C47    C50     1.402   1_556 A
C48    C43     1.413   1_556 A
C50    C47     1.402   1_554 A
C50    C17     1.477   1_455 S
N52    C29     1.369   1_455 A
N52    C33     1.370   1_554 A
N53    C41     1.370   1_455 A
N53    C42     1.370   1_554 A
H54    C46     1.109   1_655 S
H62    C28     1.109   1_455 S
H69    C44     1.109   1_655 S
H70    C45     1.083   1_655 S
H75    C44     1.108   1_655 S
H76    C103    1.082   .     S
C77    C78     1.403   .     A
C77    C82     1.401   1_566 A
C78    C79     1.401   .     A
C78    H111    1.082   .     S
C79    C83     1.506   .     S
C79    C80     1.409   1_556 A
C80    N108    1.442   .     S
C80    C79     1.409   1_554 A
C80    C81     1.413   1_565 A
C81    C82     1.405   .     A
C81    C84     1.503   .     S
C81    C80     1.413   1_545 A
C82    H112    1.082   .     S
C82    C77     1.401   1_544 A
C83    H113    1.109   .     S
C83    H114    1.110   .     S
C83    H115    1.109   .     S
C84    H116    1.108   .     S
C84    H117    1.108   .     S
C84    H118    1.108   .     S
C85    C86     1.406   .     A
C85    O120    1.373   .     S
C85    N108    1.372   1_556 A
C86    C87     1.409   .     A
C86    C90     1.406   .     A
C87    C93     1.414   .     A
C87    C88     1.410   1_556 A
C88    C89     1.406   .     A
C88    C96     1.406   .     A
C88    C87     1.410   1_554 A
C89    N108    1.371   .     A
C89    O119    1.374   .     S
C90    C91     1.397   .     A
C90    H121    1.083   .     S
C91    C92     1.405   .     A
C91    H123    1.082   .     S
C92    C93     1.410   .     A
C92    C97     1.406   .     A
C93    C94     1.409   1_556 A
C94    C95     1.406   .     A
C94    C98     1.405   .     A
C94    C93     1.409   1_554 A
C95    C96     1.397   .     A
C95    H127    1.082   .     S
C96    H122    1.083   .     S
C97    N109    1.370   .     A
C97    O130    1.374   1_565 S
C98    O129    1.373   .     S
C98    N109    1.371   1_554 A
C99    C105    1.413   .     A
C99    N109    1.440   .     S
C99    C104    1.410   1_566 A
C100   C105    1.505   .     S
C100   H124    1.103   .     S
C100   H125    1.107   .     S
C100   H131    1.109   .     S
C101   C105    1.403   .     A
C101   C106    1.402   .     A
C101   H126    1.081   .     S
C102   C104    1.506   .     S
C102   H107    1.111   .     S
C102   H110    1.109   .     S
C102   H128    1.108   .     S
C103   C104    1.401   .     A
C103   C106    1.402   1_544 A
C104   C99     1.410   1_544 A
C106   C103    1.402   1_566 A
C106   C16     1.480   1_566 S
N108   C85     1.372   1_554 A
N109   C98     1.371   1_556 A
O130   C97     1.374   1_545 S
H132   C159    1.084   .     S
C133   C134    1.406   1_455 A
C133   C138    1.405   1_545 A
C133   C18     1.486   1_545 S
C134   C135    1.404   .     A
C134   H167    1.084   .     S
C134   C133    1.406   1_655 A
C135   C139    1.505   .     S
C135   C136    1.411   1_655 A
C136   N164    1.442   .     S
C136   C135    1.411   1_455 A
C136   C137    1.411   1_545 A
C137   C138    1.402   .     A
C137   C140    1.506   .     S
C137   C136    1.411   1_565 A
C138   H168    1.082   .     S
C138   C133    1.405   1_565 A
C139   H169    1.110   .     S
C139   H170    1.109   .     S
C139   H171    1.111   .     S
C140   H172    1.110   .     S
C140   H173    1.109   .     S
C140   H174    1.110   .     S
C141   C142    1.407   .     A
C141   N164    1.370   1_655 A
C141   O176    1.373   1_545 S
C142   C146    1.405   .     A
C142   C143    1.410   1_655 A
C143   C144    1.409   .     A
C143   C142    1.410   1_455 A
C143   C149    1.413   1_455 A
C144   C145    1.404   .     A
C144   C152    1.405   .     A
C145   N164    1.371   .     A
C145   O175    1.373   .     S
C146   C147    1.397   .     A
C146   H177    1.083   1_545 S
C147   C148    1.406   .     A
C147   H179    1.083   1_545 S
C148   C149    1.409   .     A
C148   C153    1.406   .     A
C149   C143    1.413   1_655 A
C149   C150    1.409   1_655 A
C150   C151    1.405   .     A
C150   C154    1.404   .     A
C150   C149    1.409   1_455 A
C151   C152    1.396   .     A
C151   H183    1.083   .     S
C152   H178    1.083   .     S
C153   N165    1.371   .     A
C153   O186    1.372   1_545 S
C154   O185    1.373   .     S
C154   N165    1.370   1_455 A
C155   C161    1.415   .     A
C155   N165    1.441   .     S
C155   C160    1.414   1_645 A
C156   C161    1.508   .     S
C156   H180    1.110   .     S
C156   H181    1.108   .     S
C156   H187    1.108   .     S
C157   C161    1.402   .     A
C157   C162    1.406   .     A
C157   H182    1.077   .     S
C158   C160    1.507   .     S
C158   H163    1.110   .     S
C158   H166    1.110   .     S
C158   H184    1.111   .     S
C159   C160    1.402   .     A
C159   C162    1.407   1_465 A
C160   C155    1.414   1_465 A
C162   C159    1.407   1_645 A
N164   C141    1.370   1_455 A
N165   C154    1.370   1_655 A
O176   C141    1.373   1_565 S
H177   C146    1.083   1_565 S
H179   C147    1.083   1_565 S
O186   C153    1.372   1_565 S
