data_pcu+N248+E225
_audit_creation_date              2023-11-17
_audit_creation_method            'Materials Studio'
_symmetry_space_group_name_H-M    'P1'
_symmetry_Int_Tables_number       1
_symmetry_cell_setting            triclinic
loop_
_symmetry_equiv_pos_as_xyz
  x,y,z
_cell_length_a                    19.8073
_cell_length_b                    18.0394
_cell_length_c                    22.2009
_cell_angle_alpha                 66.2539
_cell_angle_beta                  82.1919
_cell_angle_gamma                 73.6869
loop_
_atom_site_label
_atom_site_type_symbol
_atom_site_fract_x
_atom_site_fract_y
_atom_site_fract_z
_atom_site_U_iso_or_equiv
_atom_site_adp_type
_atom_site_occupancy
O0     O     0.90683   0.98931   0.96379   0.00000  Uiso   1.00
Yb1    Yb    1.01691  -0.02045   0.07832   0.00000  Uiso   1.00
C2     C     1.01482   0.97028   0.19448   0.00000  Uiso   1.00
Yb3    Yb    0.01612   0.99531   0.94148   0.00000  Uiso   1.00
O4     O     0.90489  -0.02103   0.07162   0.00000  Uiso   1.00
C5     C     0.98238   0.14495   0.93405   0.00000  Uiso   1.00
C6     C     0.87359  -0.01332   0.01954   0.00000  Uiso   1.00
O7     O     0.99551   0.07894   0.84107   0.00000  Uiso   1.00
C8     C     0.01795   0.01860   0.82099   0.00000  Uiso   1.00
O9     O     0.96288   0.88053   0.10511   0.00000  Uiso   1.00
O10    O     0.04817   0.88952   1.03177   0.00000  Uiso   1.00
O11    O     0.11819   0.00706   0.04788   0.00000  Uiso   1.00
O12    O     0.03975   0.94659   0.86614   0.00000  Uiso   1.00
O13    O     0.12163   1.00844   0.94335   0.00000  Uiso   1.00
C14    C    -0.00111   0.84703   0.06906   0.00000  Uiso   1.00
C15    C     0.14959   1.01342   0.99112   0.00000  Uiso   1.00
O16    O     0.04441   0.90796   0.17814   0.00000  Uiso   1.00
O17    O     0.98657   0.03785   0.14743   0.00000  Uiso   1.00
O18    O    -0.00678   0.12971   0.88391   0.00000  Uiso   1.00
O19    O     0.97629   0.07535  -0.01040   0.00000  Uiso   1.00
C20    C     0.98967   0.77075   1.06546   0.00000  Uiso   1.00
C21    C     1.02218   0.74553   1.01422   0.00000  Uiso   1.00
C22    C     1.01476   0.67210   1.01153   0.00000  Uiso   1.00
C23    C     0.97466   0.62270   0.06029   0.00000  Uiso   1.00
C24    C    -0.05683   0.64748   0.11180   0.00000  Uiso   1.00
C25    C    -0.05033   0.72149   0.11400   0.00000  Uiso   1.00
C26    C     0.96018   0.54281   1.00207   0.00000  Uiso   1.00
H27    H    -0.06453   0.19281   0.03643   0.00000  Uiso   1.00
H28    H    -0.07902   0.32958   0.03986   0.00000  Uiso   1.00
H29    H     0.99252   0.42315   0.83706   0.00000  Uiso   1.00
H30    H     1.00386   0.28620   0.83265   0.00000  Uiso   1.00
H31    H     0.98496   0.41281   0.04156   0.00000  Uiso   1.00
O32    O     0.95487   0.46564   0.93880   0.00000  Uiso   1.00
O33    O     0.97048   0.54531   0.06245   0.00000  Uiso   1.00
C34    C     0.97179   0.22877  -0.06536   0.00000  Uiso   1.00
C35    C    -0.05155   0.24248  -0.00731   0.00000  Uiso   1.00
C36    C    -0.05868   0.32062  -0.00511   0.00000  Uiso   1.00
C37    C     0.95957   0.38604   0.93929   0.00000  Uiso   1.00
C38    C     0.98019   0.37293   0.88072   0.00000  Uiso   1.00
C39    C     0.98650   0.29498   0.87828   0.00000  Uiso   1.00
C40    C     0.96732   0.46909  -0.00166   0.00000  Uiso   1.00
H41    H     1.04172   0.65273   0.97249   0.00000  Uiso   1.00
H42    H    -0.08644   0.60904   0.15040   0.00000  Uiso   1.00
H43    H     1.05371   0.78225   0.97654   0.00000  Uiso   1.00
H44    H     0.94452   0.59990   0.95880   0.00000  Uiso   1.00
H45    H    -0.07525   0.73918   0.15444   0.00000  Uiso   1.00
C46    C     0.22166   1.02637  -0.01951   0.00000  Uiso   1.00
C47    C     0.25514   1.02971   0.03099   0.00000  Uiso   1.00
C48    C     0.32375   1.03965   0.02166   0.00000  Uiso   1.00
C49    C     0.36083   0.04519   0.96182   0.00000  Uiso   1.00
C50    C     0.32666   0.04498   0.91074   0.00000  Uiso   1.00
C51    C     0.25805   0.03490   0.91999   0.00000  Uiso   1.00
C52    C     0.47542   0.01041   0.00296   0.00000  Uiso   1.00
H53    H     0.78957  -0.00191   0.92627   0.00000  Uiso   1.00
H54    H     0.66686  -0.00767   0.93890   0.00000  Uiso   1.00
H55    H     0.66345   0.96824   0.14039   0.00000  Uiso   1.00
H56    H     0.78719   0.97228   0.12872   0.00000  Uiso   1.00
H57    H     0.55508   0.06920   0.95294   0.00000  Uiso   1.00
O58    O     0.58489  -0.02344   0.05113   0.00000  Uiso   1.00
O59    O     0.42969   0.05587   0.94994   0.00000  Uiso   1.00
C60    C     0.79818  -0.01358   0.02630   0.00000  Uiso   1.00
C61    C     0.76259  -0.00735   0.97311   0.00000  Uiso   1.00
C62    C     0.69188  -0.00956   0.98007   0.00000  Uiso   1.00
C63    C     0.65492  -0.01675   0.04026   0.00000  Uiso   1.00
C64    C     0.69069   0.97576   0.09339   0.00000  Uiso   1.00
C65    C     0.76135   0.97799   0.08654   0.00000  Uiso   1.00
C66    C     0.53971   0.02235  -0.00224   0.00000  Uiso   1.00
H67    H     0.34753   1.04363   0.06101   0.00000  Uiso   1.00
H68    H     0.35389   0.05135   0.86388   0.00000  Uiso   1.00
H69    H     0.22841   1.02467   0.07786   0.00000  Uiso   1.00
H70    H     0.46037   0.96339   0.04790   0.00000  Uiso   1.00
H71    H     0.23366   0.03366   0.87972   0.00000  Uiso   1.00
C72    C     1.01312  -0.03572   0.26297   0.00000  Uiso   1.00
C73    C    -0.01847   0.03445   0.27888   0.00000  Uiso   1.00
C74    C    -0.02071   0.02823   0.34395   0.00000  Uiso   1.00
C75    C     0.00940   0.95164   0.39421   0.00000  Uiso   1.00
C76    C     0.03961   0.88155   0.37836   0.00000  Uiso   1.00
C77    C     1.04212   0.88775   0.31334   0.00000  Uiso   1.00
C78    C     0.01391   0.00739   0.47429   0.00000  Uiso   1.00
H79    H     0.06957   0.90172   0.76716   0.00000  Uiso   1.00
H80    H     0.07034   0.92150   0.65181   0.00000  Uiso   1.00
H81    H    -0.03179   0.18299   0.60093   0.00000  Uiso   1.00
H82    H    -0.03102   0.16389   0.71687   0.00000  Uiso   1.00
H83    H    -0.00997   0.94954   0.57402   0.00000  Uiso   1.00
O84    O     0.01533   0.06832   0.55068   0.00000  Uiso   1.00
O85    O     0.00574   0.94083   0.46077   0.00000  Uiso   1.00
C86    C     0.01843   1.03106   0.75103   0.00000  Uiso   1.00
C87    C     0.04673   0.96333   0.73148   0.00000  Uiso   1.00
C88    C     0.04632   0.97446   0.66551   0.00000  Uiso   1.00
C89    C     0.01620   0.05354   0.61785   0.00000  Uiso   1.00
C90    C    -0.01006   0.12143   0.63721   0.00000  Uiso   1.00
C91    C    -0.00945   0.11043   0.70322   0.00000  Uiso   1.00
C92    C     0.00562   1.00320   0.53606   0.00000  Uiso   1.00
H93    H    -0.04720   0.08265   0.35508   0.00000  Uiso   1.00
H94    H     1.06155   0.82187   0.41671   0.00000  Uiso   1.00
H95    H    -0.04205   0.09395   0.24113   0.00000  Uiso   1.00
H96    H     0.02950   0.06084   0.43604   0.00000  Uiso   1.00
H97    H     1.06625   0.83245   0.30262   0.00000  Uiso   1.00
loop_
_geom_bond_atom_site_label_1
_geom_bond_atom_site_label_2
_geom_bond_distance
_geom_bond_site_symmetry_2
_ccdc_geom_bond_type
O0     C6      1.310   1_566 A
O0     Yb3     2.177   1_655 S
Yb1    O4      2.247   .     S
Yb1    O17     2.125   .     S
Yb1    O19     2.103   .     S
Yb1    Yb3     2.937   1_644 S
Yb1    O9      2.176   1_545 S
Yb1    O10     2.169   1_644 S
Yb1    O11     2.156   1_655 S
Yb1    O16     2.122   1_645 S
C2     O16     1.280   1_655 A
C2     O17     1.281   1_565 A
C2     C72     1.477   1_565 S
Yb3    O10     2.156   .     S
Yb3    O12     2.128   .     S
Yb3    O13     2.176   .     S
Yb3    O0      2.177   1_455 S
Yb3    Yb1     2.937   1_466 S
Yb3    O7      2.146   1_465 S
Yb3    O18     2.182   1_565 S
Yb3    O19     2.055   1_466 S
O4     C6      1.326   .     A
C5     O18     1.228   1_655 D
C5     O19     1.382   1_556 S
C5     C34     1.472   1_556 S
C6     C60     1.482   .     S
C6     O0      1.310   1_544 A
O7     Yb3     2.146   1_645 S
O7     C8      1.283   1_655 A
C8     O7      1.283   1_455 A
C8     O12     1.278   1_545 A
C8     C86     1.476   1_545 S
O9     Yb1     2.176   1_565 S
O9     C14     1.228   1_655 D
O10    Yb1     2.169   1_466 S
O10    C14     1.384   1_556 S
O11    Yb1     2.156   1_455 S
O11    C15     1.303   1_544 A
O12    C8      1.278   1_565 A
O13    C15     1.305   .     A
C14    O9      1.228   1_455 D
C14    O10     1.384   1_554 S
C14    C20     1.472   1_454 S
C15    O11     1.303   1_566 A
C15    C46     1.483   1_556 S
O16    Yb1     2.122   1_465 S
O16    C2      1.280   1_455 A
O17    C2      1.281   1_545 A
O18    Yb3     2.182   1_545 S
O18    C5      1.228   1_455 D
O19    Yb3     2.055   1_644 S
O19    C5      1.382   1_554 S
C20    C21     1.403   .     A
C20    C25     1.404   1_656 A
C20    C14     1.472   1_656 S
C21    C22     1.398   .     A
C21    H43     1.083   .     S
C22    H41     1.082   .     S
C22    C23     1.408   1_556 A
C23    O33     1.403   .     S
C23    C22     1.408   1_554 A
C23    C24     1.399   1_655 A
C24    C25     1.397   .     A
C24    H42     1.083   .     S
C24    C23     1.399   1_455 A
C25    H45     1.083   .     S
C25    C20     1.404   1_454 A
C26    H44     1.088   .     S
C26    O33     1.403   1_556 S
C26    C40     1.332   1_556 D
H27    C35     1.083   .     S
H28    C36     1.081   .     S
H29    C38     1.083   .     S
H30    C39     1.083   .     S
H31    C40     1.087   .     S
O32    C37     1.408   .     S
O32    C40     1.405   1_556 S
O33    C26     1.403   1_554 S
C34    C35     1.402   1_655 A
C34    C39     1.404   1_554 A
C34    C5      1.472   1_554 S
C35    C36     1.397   .     A
C35    C34     1.402   1_455 A
C36    C37     1.411   1_454 A
C37    C38     1.401   .     A
C37    C36     1.411   1_656 A
C38    C39     1.399   .     A
C39    C34     1.404   1_556 A
C40    C26     1.332   1_554 D
C40    O32     1.405   1_554 S
C46    C47     1.407   .     A
C46    C51     1.407   1_564 A
C46    C15     1.483   1_554 S
C47    C48     1.397   .     A
C47    H69     1.083   .     S
C48    H67     1.082   .     S
C48    C49     1.408   1_564 A
C49    C50     1.399   .     A
C49    O59     1.406   .     S
C49    C48     1.408   1_546 A
C50    C51     1.398   .     A
C50    H68     1.083   .     S
C51    H71     1.083   .     S
C51    C46     1.407   1_546 A
C52    C66     1.333   .     D
C52    O59     1.405   1_554 S
C52    H70     1.088   1_545 S
H53    C61     1.083   .     S
H54    C62     1.082   .     S
H55    C64     1.083   .     S
H56    C65     1.083   .     S
H57    C66     1.087   1_556 S
O58    C63     1.406   .     S
O58    C66     1.404   .     S
O59    C52     1.405   1_556 S
C60    C61     1.407   1_554 A
C60    C65     1.406   1_545 A
C61    C62     1.398   .     A
C61    C60     1.407   1_556 A
C62    C63     1.410   1_556 D
C63    C62     1.410   1_554 D
C63    C64     1.399   1_545 S
C64    C65     1.397   .     A
C64    C63     1.399   1_565 S
C65    C60     1.406   1_565 A
C66    H57     1.087   1_554 S
H70    C52     1.088   1_565 S
C72    C73     1.405   1_655 A
C72    C77     1.404   1_545 A
C72    C2      1.477   1_545 S
C73    C74     1.399   .     A
C73    H95     1.083   .     S
C73    C72     1.405   1_455 A
C74    H93     1.082   .     S
C74    C75     1.409   1_545 A
C75    C76     1.399   .     A
C75    O85     1.405   .     S
C75    C74     1.409   1_565 A
C76    C77     1.397   1_455 A
C76    H94     1.083   1_455 S
C77    H97     1.083   .     S
C77    C72     1.404   1_565 A
C77    C76     1.397   1_655 A
C78    H96     1.088   .     S
C78    O85     1.404   1_545 S
C78    C92     1.332   1_545 D
H79    C87     1.083   .     S
H80    C88     1.082   .     S
H81    C90     1.083   .     S
H82    C91     1.083   .     S
H83    C92     1.088   .     S
O84    C89     1.407   .     S
O84    C92     1.405   1_545 S
O85    C78     1.404   1_565 S
C86    C87     1.404   .     A
C86    C91     1.404   1_565 A
C86    C8      1.476   1_565 S
C87    C88     1.397   .     A
C88    C89     1.410   1_565 A
C89    C90     1.400   .     A
C89    C88     1.410   1_545 A
C90    C91     1.399   .     A
C91    C86     1.404   1_545 A
C92    C78     1.332   1_565 D
C92    O84     1.405   1_565 S
H94    C76     1.083   1_655 S
