data_pcu+N248+E1
_audit_creation_date              2023-11-17
_audit_creation_method            'Materials Studio'
_symmetry_space_group_name_H-M    'P1'
_symmetry_Int_Tables_number       1
_symmetry_cell_setting            triclinic
loop_
_symmetry_equiv_pos_as_xyz
  x,y,z
_cell_length_a                    19.9456
_cell_length_b                    19.2638
_cell_length_c                    22.3125
_cell_angle_alpha                 89.5200
_cell_angle_beta                  89.7852
_cell_angle_gamma                 89.9279
loop_
_atom_site_label
_atom_site_type_symbol
_atom_site_fract_x
_atom_site_fract_y
_atom_site_fract_z
_atom_site_U_iso_or_equiv
_atom_site_adp_type
_atom_site_occupancy
O0     O     0.88513   1.00480   0.95045   0.00000  Uiso   1.00
Yb1    Yb    0.99233   0.00507   0.06557   0.00000  Uiso   1.00
C2     C     0.99196   1.00455   0.17936   0.00000  Uiso   1.00
Yb3    Yb   -0.00720   1.00396   0.93843   0.00000  Uiso   1.00
O4     O     0.88473   0.00426   0.05363   0.00000  Uiso   1.00
C5     C     0.99262   0.13548   0.95489   0.00000  Uiso   1.00
C6     C     0.85409   0.00452   0.00205   0.00000  Uiso   1.00
O7     O     0.99304   0.06072   0.85512   0.00000  Uiso   1.00
C8     C    -0.00687   0.00447   0.82465   0.00000  Uiso   1.00
O9     O     0.99231   0.89981   0.09917   0.00000  Uiso   1.00
O10    O    -0.00735   0.92161   1.00203   0.00000  Uiso   1.00
O11    O     0.10000   0.00423   0.05355   0.00000  Uiso   1.00
O12    O    -0.00689   0.94864   0.85597   0.00000  Uiso   1.00
O13    O     0.10040   1.00476   0.95037   0.00000  Uiso   1.00
C14    C    -0.00748   0.87354   0.04912   0.00000  Uiso   1.00
C15    C     0.13104   1.00450   1.00195   0.00000  Uiso   1.00
O16    O    -0.00791   0.94829   0.14888   0.00000  Uiso   1.00
O17    O     0.99200   0.06038   0.14804   0.00000  Uiso   1.00
O18    O    -0.00718   0.10921   0.90483   0.00000  Uiso   1.00
O19    O     0.99249   0.08741   0.00197   0.00000  Uiso   1.00
C20    C     0.99258   0.65315   0.02119   0.00000  Uiso   1.00
C21    C     0.99267   0.69957   0.97222   0.00000  Uiso   1.00
C22    C     0.99274   0.77125   0.98143   0.00000  Uiso   1.00
C23    C     0.99261   0.79790   0.03975   0.00000  Uiso   1.00
C24    C    -0.00749   0.75174   0.08878   0.00000  Uiso   1.00
C25    C     0.99256   0.68006   0.07959   0.00000  Uiso   1.00
C26    C     0.99252   0.57698   0.01140   0.00000  Uiso   1.00
C27    C     1.03201   0.53283   0.04726   0.00000  Uiso   1.00
C28    C     1.03200   0.46117   0.03801   0.00000  Uiso   1.00
C29    C     0.99253   0.43202  -0.00735   0.00000  Uiso   1.00
C30    C     0.95304   0.47616   0.95679   0.00000  Uiso   1.00
C31    C     0.95304   0.54782   0.96606   0.00000  Uiso   1.00
C32    C     0.99251   0.35586  -0.01715   0.00000  Uiso   1.00
C33    C     0.99267   0.32898   0.92445   0.00000  Uiso   1.00
C34    C     0.99274   0.25730   0.91524   0.00000  Uiso   1.00
C35    C     0.99255   0.21112  -0.03574   0.00000  Uiso   1.00
C36    C    -0.00768   0.23776   0.02258   0.00000  Uiso   1.00
C37    C     0.99234   0.30943   0.03181   0.00000  Uiso   1.00
H38    H     0.99361   0.68047   0.92672   0.00000  Uiso   1.00
H39    H     0.99303   0.80580   0.94288   0.00000  Uiso   1.00
H40    H    -0.00778   0.77103   0.13423   0.00000  Uiso   1.00
H41    H    -0.00835   0.64567   0.11821   0.00000  Uiso   1.00
H42    H     1.06375   0.55382   0.08194   0.00000  Uiso   1.00
H43    H     1.06374   0.42865   0.06577   0.00000  Uiso   1.00
H44    H     0.92131   0.45516   0.92212   0.00000  Uiso   1.00
H45    H     0.92129   0.58034   0.93831   0.00000  Uiso   1.00
H46    H     0.99366   0.36339   0.88583   0.00000  Uiso   1.00
H47    H     0.99312   0.23802   0.86978   0.00000  Uiso   1.00
H48    H    -0.00803   0.20320   0.06113   0.00000  Uiso   1.00
H49    H    -0.00868   0.32853   0.07731   0.00000  Uiso   1.00
C50    C     0.34721   0.00454   0.00197   0.00000  Uiso   1.00
C51    C     0.31114   0.00454   0.05619   0.00000  Uiso   1.00
C52    C     0.24107   1.00455   0.05620   0.00000  Uiso   1.00
C53    C     0.20539   0.00453   0.00195   0.00000  Uiso   1.00
C54    C     0.24154   0.00453   0.94771   0.00000  Uiso   1.00
C55    C     0.31161   0.00456   0.94773   0.00000  Uiso   1.00
C56    C     0.42168   0.00451   0.00198   0.00000  Uiso   1.00
C57    C     0.45767   0.04525   0.96042   0.00000  Uiso   1.00
C58    C     0.52773   0.04521   0.96044   0.00000  Uiso   1.00
C59    C     0.56343   0.00443   0.00201   0.00000  Uiso   1.00
C60    C     0.52744  -0.03632   0.04357   0.00000  Uiso   1.00
C61    C     0.45738  -0.03627   0.04356   0.00000  Uiso   1.00
C62    C     0.63791   0.00440   0.00203   0.00000  Uiso   1.00
C63    C     0.67352   0.00426   0.05627   0.00000  Uiso   1.00
C64    C     0.74359   1.00429   0.05630   0.00000  Uiso   1.00
C65    C     0.77974   0.00447   0.00205   0.00000  Uiso   1.00
C66    C     0.74407   0.00460   0.94780   0.00000  Uiso   1.00
C67    C     0.67399   0.00454   0.94781   0.00000  Uiso   1.00
H68    H     0.33711   1.00545   0.09870   0.00000  Uiso   1.00
H69    H     0.21494   1.00477   0.09882   0.00000  Uiso   1.00
H70    H     0.21576   0.00431   0.90508   0.00000  Uiso   1.00
H71    H     0.33795   0.00363   0.90523   0.00000  Uiso   1.00
H72    H     0.43163   0.07806   0.92845   0.00000  Uiso   1.00
H73    H     0.55399   0.07801   0.92849   0.00000  Uiso   1.00
H74    H     0.55347  -0.06914   0.07553   0.00000  Uiso   1.00
H75    H     0.43112  -0.06905   0.07552   0.00000  Uiso   1.00
H76    H     0.64718   1.00506   0.09878   0.00000  Uiso   1.00
H77    H     0.76936   1.00438   0.09892   0.00000  Uiso   1.00
H78    H     0.77021   0.00454   0.90518   0.00000  Uiso   1.00
H79    H     0.64802   0.00371   0.90529   0.00000  Uiso   1.00
C80    C     0.99192   0.00458   0.37207   0.00000  Uiso   1.00
C81    C     0.99166   0.94174   0.34048   0.00000  Uiso   1.00
C82    C     0.99165   0.94176   0.27784   0.00000  Uiso   1.00
C83    C     0.99184   0.00461   0.24551   0.00000  Uiso   1.00
C84    C     0.99201   0.06744   0.27693   0.00000  Uiso   1.00
C85    C     0.99208   0.06744   0.33957   0.00000  Uiso   1.00
C86    C     0.99212   0.00457   0.43864   0.00000  Uiso   1.00
C87    C     1.03189   0.05206   0.47010   0.00000  Uiso   1.00
C88    C     1.03215   0.05202   0.53273   0.00000  Uiso   1.00
C89    C     0.99266   0.00445   0.56535   0.00000  Uiso   1.00
C90    C     0.95289   0.95697   0.53389   0.00000  Uiso   1.00
C91    C     0.95264   0.95700   0.47126   0.00000  Uiso   1.00
C92    C     0.99289   0.00443   0.63193   0.00000  Uiso   1.00
C93    C     0.99259   0.94158   0.66443   0.00000  Uiso   1.00
C94    C     0.99275   0.94158   0.72707   0.00000  Uiso   1.00
C95    C     0.99317   0.00441   0.75850   0.00000  Uiso   1.00
C96    C     0.99349   0.06725   0.72617   0.00000  Uiso   1.00
C97    C     0.99339   0.06727   0.66353   0.00000  Uiso   1.00
H98    H     0.99242   0.89248   0.36421   0.00000  Uiso   1.00
H99    H    -0.00829   0.89255   0.25471   0.00000  Uiso   1.00
H100   H     0.99196   0.11666   0.25310   0.00000  Uiso   1.00
H101   H     0.99139   0.11669   0.36261   0.00000  Uiso   1.00
H102   H     1.06367   0.08860   0.44626   0.00000  Uiso   1.00
H103   H     1.06414   0.08850   0.55565   0.00000  Uiso   1.00
H104   H     0.92110   0.92043   0.55773   0.00000  Uiso   1.00
H105   H     0.92068   0.92049   0.44833   0.00000  Uiso   1.00
H106   H     0.99309   0.89232   0.64140   0.00000  Uiso   1.00
H107   H    -0.00733   0.89237   0.75091   0.00000  Uiso   1.00
H108   H     0.99361   0.11646   0.74929   0.00000  Uiso   1.00
H109   H     0.99275   0.11654   0.63980   0.00000  Uiso   1.00
loop_
_geom_bond_atom_site_label_1
_geom_bond_atom_site_label_2
_geom_bond_distance
_geom_bond_site_symmetry_2
_ccdc_geom_bond_type
O0     C6      1.305   1_566 A
O0     Yb3     2.163   1_655 S
Yb1    O4      2.164   .     S
Yb1    O17     2.134   .     S
Yb1    O19     2.119   .     S
Yb1    Yb3     2.837   1_644 S
Yb1    O9      2.156   1_545 S
Yb1    O10     2.152   1_644 S
Yb1    O11     2.163   1_655 S
Yb1    O16     2.149   1_645 S
C2     O16     1.284   1_655 A
C2     O17     1.278   1_565 A
C2     C83     1.476   1_565 S
Yb3    O10     2.119   .     S
Yb3    O12     2.134   .     S
Yb3    O13     2.164   .     S
Yb3    O0      2.163   1_455 S
Yb3    Yb1     2.837   1_466 S
Yb3    O7      2.149   1_465 S
Yb3    O18     2.156   1_565 S
Yb3    O19     2.152   1_466 S
O4     C6      1.305   .     A
C5     O18     1.230   1_655 D
C5     O19     1.395   1_556 S
C5     C35     1.474   1_556 S
C6     C65     1.483   .     S
C6     O0      1.305   1_544 A
O7     Yb3     2.149   1_645 S
O7     C8      1.284   1_655 A
C8     O7      1.284   1_455 A
C8     O12     1.278   1_545 A
C8     C95     1.476   1_455 S
O9     Yb1     2.156   1_565 S
O9     C14     1.230   1_655 D
O10    Yb1     2.152   1_466 S
O10    C14     1.395   1_556 S
O11    Yb1     2.163   1_455 S
O11    C15     1.305   1_544 A
O12    C8      1.278   1_565 A
O13    C15     1.305   .     A
C14    O9      1.230   1_455 D
C14    O10     1.395   1_554 S
C14    C23     1.474   1_455 S
C15    O11     1.305   1_566 A
C15    C53     1.483   1_566 S
O16    Yb1     2.149   1_465 S
O16    C2      1.284   1_455 A
O17    C2      1.278   1_545 A
O18    Yb3     2.156   1_545 S
O18    C5      1.230   1_455 D
O19    Yb3     2.152   1_644 S
O19    C5      1.395   1_554 S
C20    C25     1.406   .     A
C20    C26     1.485   .     S
C20    C21     1.406   1_554 A
C21    C22     1.398   .     A
C21    H38     1.083   .     S
C21    C20     1.406   1_556 A
C22    H39     1.083   .     S
C22    C23     1.403   1_556 A
C23    C22     1.403   1_554 A
C23    C24     1.404   1_655 A
C23    C14     1.474   1_655 S
C24    H40     1.083   .     S
C24    C23     1.404   1_455 A
C24    C25     1.398   1_455 A
C25    C24     1.398   1_655 A
C25    H41     1.083   1_655 S
C26    C27     1.405   .     A
C26    C31     1.406   1_554 A
C27    C28     1.397   .     A
C27    H42     1.083   .     S
C28    C29     1.406   .     A
C28    H43     1.083   .     S
C29    C32     1.485   .     S
C29    C30     1.405   1_554 A
C30    C31     1.398   .     A
C30    H44     1.083   .     S
C30    C29     1.405   1_556 A
C31    H45     1.083   .     S
C31    C26     1.406   1_556 A
C32    C37     1.406   .     A
C32    C33     1.406   1_554 A
C33    C34     1.398   .     A
C33    H46     1.083   .     S
C33    C32     1.406   1_556 A
C34    H47     1.083   .     S
C34    C35     1.404   1_556 A
C35    C34     1.404   1_554 A
C35    C36     1.403   1_655 A
C35    C5      1.474   1_554 S
C36    H48     1.083   .     S
C36    C35     1.403   1_455 A
C36    C37     1.398   1_455 A
C37    C36     1.398   1_655 A
C37    H49     1.083   1_655 S
H41    C25     1.083   1_455 S
H49    C37     1.083   1_455 S
C50    C51     1.405   .     A
C50    C56     1.485   .     S
C50    C55     1.405   1_554 A
C51    C52     1.397   1_545 A
C51    H68     1.083   1_545 S
C52    H69     1.083   .     S
C52    C51     1.397   1_565 A
C52    C53     1.406   1_565 A
C53    C52     1.406   1_545 A
C53    C54     1.406   1_554 A
C53    C15     1.483   1_544 S
C54    C55     1.398   .     A
C54    H70     1.083   .     S
C54    C53     1.406   1_556 A
C55    H71     1.083   .     S
C55    C50     1.405   1_556 A
C56    C61     1.406   .     A
C56    C57     1.405   1_554 A
C57    C58     1.397   .     A
C57    H72     1.083   .     S
C57    C56     1.405   1_556 A
C58    H73     1.083   .     S
C58    C59     1.406   1_556 A
C59    C60     1.406   .     A
C59    C62     1.486   .     S
C59    C58     1.406   1_554 A
C60    C61     1.397   .     A
C60    H74     1.083   .     S
C61    H75     1.083   .     S
C62    C63     1.405   .     A
C62    C67     1.405   1_554 A
C63    C64     1.398   1_545 A
C63    H76     1.083   1_545 S
C64    H77     1.083   .     S
C64    C63     1.398   1_565 A
C64    C65     1.406   1_565 A
C65    C64     1.406   1_545 A
C65    C66     1.406   1_554 A
C66    C67     1.398   .     A
C66    H78     1.083   .     S
C66    C65     1.406   1_556 A
C67    H79     1.083   .     S
C67    C62     1.405   1_556 A
H68    C51     1.083   1_565 S
H76    C63     1.083   1_565 S
C80    C85     1.406   .     A
C80    C86     1.485   .     S
C80    C81     1.406   1_545 A
C81    C82     1.398   .     A
C81    H98     1.083   .     S
C81    C80     1.406   1_565 A
C82    C83     1.404   1_565 A
C82    H99     1.083   1_655 S
C83    C84     1.404   .     A
C83    C82     1.404   1_545 A
C83    C2      1.476   1_545 S
C84    C85     1.398   .     A
C84    H100    1.083   .     S
C85    H101    1.083   .     S
C86    C87     1.405   .     A
C86    C91     1.406   1_545 A
C87    C88     1.397   .     A
C87    H102    1.083   .     S
C88    C89     1.406   .     A
C88    H103    1.083   .     S
C89    C92     1.485   .     S
C89    C90     1.406   1_545 A
C90    C91     1.397   .     A
C90    H104    1.083   .     S
C90    C89     1.406   1_565 A
C91    H105    1.083   .     S
C91    C86     1.406   1_565 A
C92    C97     1.406   .     A
C92    C93     1.406   1_545 A
C93    C94     1.398   .     A
C93    H106    1.083   .     S
C93    C92     1.406   1_565 A
C94    C95     1.404   1_565 A
C94    H107    1.083   1_655 S
C95    C96     1.404   .     A
C95    C94     1.404   1_545 A
C95    C8      1.476   1_655 S
C96    C97     1.398   .     A
C96    H108    1.083   .     S
C97    H109    1.083   .     S
H99    C82     1.083   1_455 S
H107   C94     1.083   1_455 S
