data_pcu+N205+E9
_audit_creation_date              2023-11-17
_audit_creation_method            'Materials Studio'
_symmetry_space_group_name_H-M    'P1'
_symmetry_Int_Tables_number       1
_symmetry_cell_setting            triclinic
loop_
_symmetry_equiv_pos_as_xyz
  x,y,z
_cell_length_a                    21.2749
_cell_length_b                    23.1597
_cell_length_c                    17.1866
_cell_angle_alpha                 108.1286
_cell_angle_beta                  122.2110
_cell_angle_gamma                 95.4320
loop_
_atom_site_label
_atom_site_type_symbol
_atom_site_fract_x
_atom_site_fract_y
_atom_site_fract_z
_atom_site_U_iso_or_equiv
_atom_site_adp_type
_atom_site_occupancy
Y0     Y     0.07430   0.10597   0.03043   0.00000  Uiso   1.00
Y1     Y     0.91754   0.90704   0.97099   0.00000  Uiso   1.00
C2     C     0.79978   0.93389   0.97877   0.00000  Uiso   1.00
C3     C     1.05282   0.03802   0.14834   0.00000  Uiso   1.00
C4     C     0.05251   0.21734   0.02237   0.00000  Uiso   1.00
C5     C     0.19209   0.07901   0.02281   0.00000  Uiso   1.00
C6     C    -0.06101   0.97503   0.85309   0.00000  Uiso   1.00
C7     C     0.93948   0.79571   0.97909   0.00000  Uiso   1.00
O8     O     0.79064   0.90205   0.89713   0.00000  Uiso   1.00
O9     O     0.86972   0.95198   0.05627   0.00000  Uiso   1.00
O10    O     1.08198   0.09347   0.16046   0.00000  Uiso   1.00
O11    O     1.03070   0.98955   0.06864   0.00000  Uiso   1.00
O12    O     0.01801   0.16442   0.94477   0.00000  Uiso   1.00
O13    O     0.09799   0.21267   0.10419   0.00000  Uiso   1.00
O14    O     0.20120   0.11083   0.10443   0.00000  Uiso   1.00
O15    O     0.12220   0.06104   0.94524   0.00000  Uiso   1.00
O16    O    -0.09019   0.91957   0.84096   0.00000  Uiso   1.00
O17    O    -0.03886   0.02349   0.93283   0.00000  Uiso   1.00
O18    O     0.97402   0.84865   0.05668   0.00000  Uiso   1.00
O19    O     0.89390   0.80034   0.89728   0.00000  Uiso   1.00
C20    C     0.97319   0.62320  -0.00802   0.00000  Uiso   1.00
N21    N     0.92275   0.62474   0.90120   0.00000  Uiso   1.00
N22    N     0.91201   0.67978   0.89708   0.00000  Uiso   1.00
C23    C     0.95132   0.73521  -0.01642   0.00000  Uiso   1.00
N24    N     1.00175   0.73374   0.07435   0.00000  Uiso   1.00
N25    N     1.01250   0.67871   0.07847   0.00000  Uiso   1.00
C26    C     0.98509   0.56256  -0.00347   0.00000  Uiso   1.00
N27    N     1.03598   0.56112   0.08723   0.00000  Uiso   1.00
N28    N     1.04681   0.50612   0.09137   0.00000  Uiso   1.00
C29    C     1.00714   0.45054   0.00494   0.00000  Uiso   1.00
N30    N     0.95626   0.45198   0.91423   0.00000  Uiso   1.00
N31    N     0.94542   0.50698   0.91009   0.00000  Uiso   1.00
C32    C     1.01902   0.38989   0.00949   0.00000  Uiso   1.00
N33    N     0.97975   0.33440   0.92299   0.00000  Uiso   1.00
N34    N     0.99042   0.27935   0.92710   0.00000  Uiso   1.00
C35    C     1.04073   0.27784   0.01788   0.00000  Uiso   1.00
N36    N     1.08001   0.33327   0.10439   0.00000  Uiso   1.00
N37    N     1.06937   0.38833   0.10028   0.00000  Uiso   1.00
C38    C     0.37336   0.03576   1.00973   0.00000  Uiso   1.00
N39    N     0.38770   0.07075   0.10054   0.00000  Uiso   1.00
N40    N     0.32994   0.08467   0.10479   0.00000  Uiso   1.00
C41    C     0.25578   0.06408   1.01834   0.00000  Uiso   1.00
N42    N     0.24138   1.02913   0.92754   0.00000  Uiso   1.00
N43    N     0.29913   1.01521   0.92329   0.00000  Uiso   1.00
C44    C     0.43703   0.02040   1.00508   0.00000  Uiso   1.00
N45    N     0.42263   0.98528   0.91429   0.00000  Uiso   1.00
N46    N     0.48035   0.97129   0.91002   0.00000  Uiso   1.00
C47    C     0.55460  -0.00810   0.99641   0.00000  Uiso   1.00
N48    N     0.56900   0.02701   0.08720   0.00000  Uiso   1.00
N49    N     0.51127   0.04100   0.09146   0.00000  Uiso   1.00
C50    C     0.61832  -0.02335   0.99178   0.00000  Uiso   1.00
N51    N     0.69249  -0.00293   0.07828   0.00000  Uiso   1.00
N52    N     0.75035  -0.01665   0.07410   0.00000  Uiso   1.00
C53    C     0.73607  -0.05129   0.98326   0.00000  Uiso   1.00
N54    N     0.66198   0.92828   0.89676   0.00000  Uiso   1.00
N55    N     0.60412   0.94200   0.90095   0.00000  Uiso   1.00
C56    C     0.01980   0.01937   0.35941   0.00000  Uiso   1.00
N57    N     1.03612   0.07762   0.35981   0.00000  Uiso   1.00
N58    N     1.04680   0.08355   0.29265   0.00000  Uiso   1.00
C59    C     0.04116   0.03141   0.22235   0.00000  Uiso   1.00
N60    N     0.02570   0.97332   0.22269   0.00000  Uiso   1.00
N61    N     0.01507   0.96737   0.28987   0.00000  Uiso   1.00
C62    C     0.00741   0.01271   0.43290   0.00000  Uiso   1.00
N63    N    -0.00868   0.95447   0.43263   0.00000  Uiso   1.00
N64    N    -0.02011   0.94838   0.49913   0.00000  Uiso   1.00
C65    C    -0.01593   0.00029   0.56826   0.00000  Uiso   1.00
N66    N     1.00018   0.05853   0.56854   0.00000  Uiso   1.00
N67    N     1.01161   0.06462   0.50205   0.00000  Uiso   1.00
C68    C    -0.02828  -0.00637   0.64178   0.00000  Uiso   1.00
N69    N     0.97669   0.04567   0.71153   0.00000  Uiso   1.00
N70    N     0.96616   0.03973   0.77879   0.00000  Uiso   1.00
C71    C    -0.04940  -0.01836   0.77905   0.00000  Uiso   1.00
N72    N    -0.05527   0.92946   0.70856   0.00000  Uiso   1.00
N73    N    -0.04472   0.93537   0.64128   0.00000  Uiso   1.00
loop_
_geom_bond_atom_site_label_1
_geom_bond_atom_site_label_2
_geom_bond_distance
_geom_bond_site_symmetry_2
_ccdc_geom_bond_type
Y0     O13     2.259   .     S
Y0     O14     2.261   .     S
Y0     O10     2.264   1_455 S
Y0     O12     2.259   1_554 S
Y0     O15     2.260   1_554 S
Y0     O17     2.256   1_554 S
Y1     O8      2.261   .     S
Y1     O19     2.259   .     S
Y1     O9      2.260   1_556 S
Y1     O11     2.256   1_556 S
Y1     O16     2.264   1_655 S
Y1     O18     2.259   1_556 S
C2     O8      1.260   .     A
C2     O9      1.259   1_556 A
C2     C53     1.464   1_565 S
C3     O10     1.274   .     A
C3     O11     1.270   1_545 A
C3     C59     1.467   1_655 S
C4     O13     1.261   .     A
C4     O12     1.260   1_554 A
C4     C35     1.465   1_455 S
C5     O14     1.260   .     A
C5     O15     1.259   1_554 A
C5     C41     1.464   1_554 S
C6     O16     1.274   .     A
C6     O17     1.270   1_565 A
C6     C71     1.467   1_565 S
C7     O19     1.261   .     A
C7     O18     1.260   1_556 A
C7     C23     1.465   1_556 S
O9     Y1      2.260   1_554 S
O9     C2      1.259   1_554 A
O10    Y0      2.264   1_655 S
O11    Y1      2.256   1_554 S
O11    C3      1.270   1_565 A
O12    Y0      2.259   1_556 S
O12    C4      1.260   1_556 A
O15    Y0      2.260   1_556 S
O15    C5      1.259   1_556 A
O16    Y1      2.264   1_455 S
O17    Y0      2.256   1_556 S
O17    C6      1.270   1_545 A
O18    Y1      2.259   1_554 S
O18    C7      1.260   1_554 A
C20    N25     1.358   .     A
C20    C26     1.469   .     S
C20    N21     1.358   1_554 A
N21    N22     1.333   .     A
N21    C20     1.358   1_556 A
N22    C23     1.357   1_556 A
C23    N24     1.357   .     A
C23    N22     1.357   1_554 A
C23    C7      1.465   1_554 S
N24    N25     1.333   .     A
C26    N27     1.358   .     A
C26    N31     1.358   1_554 A
N27    N28     1.332   .     A
N28    C29     1.358   .     A
C29    C32     1.469   .     S
C29    N30     1.358   1_554 A
N30    N31     1.332   .     A
N30    C29     1.358   1_556 A
N31    C26     1.358   1_556 A
C32    N37     1.358   .     A
C32    N33     1.358   1_554 A
N33    N34     1.333   .     A
N33    C32     1.358   1_556 A
N34    C35     1.357   1_556 A
C35    N36     1.357   .     A
C35    N34     1.357   1_554 A
C35    C4      1.465   1_655 S
N36    N37     1.333   .     A
C38    C44     1.469   .     S
C38    N39     1.358   1_556 A
C38    N43     1.358   1_545 A
N39    N40     1.332   .     A
N39    C38     1.358   1_554 A
N40    C41     1.357   1_554 A
C41    N40     1.357   1_556 A
C41    N42     1.357   1_545 A
C41    C5      1.464   1_556 S
N42    N43     1.332   .     A
N42    C41     1.357   1_565 A
N43    C38     1.358   1_565 A
C44    N45     1.358   1_545 A
C44    N49     1.358   1_556 A
N45    N46     1.332   .     A
N45    C44     1.358   1_565 A
N46    C47     1.358   1_565 A
C47    C50     1.469   .     S
C47    N46     1.358   1_545 A
C47    N48     1.358   1_556 A
N48    N49     1.332   .     A
N48    C47     1.358   1_554 A
N49    C44     1.358   1_554 A
C50    N51     1.358   1_556 A
C50    N55     1.358   1_545 A
N51    N52     1.332   .     A
N51    C50     1.358   1_554 A
N52    C53     1.357   1_554 A
C53    N52     1.357   1_556 A
C53    N54     1.357   1_545 A
C53    C2      1.464   1_545 S
N54    N55     1.333   .     A
N54    C53     1.357   1_565 A
N55    C50     1.358   1_565 A
C56    C62     1.469   .     S
C56    N57     1.358   1_455 A
C56    N61     1.357   1_545 A
N57    N58     1.332   .     A
N57    C56     1.358   1_655 A
N58    C59     1.357   1_655 A
C59    N58     1.357   1_455 A
C59    N60     1.357   1_545 A
C59    C3      1.467   1_455 S
N60    N61     1.332   .     A
N60    C59     1.357   1_565 A
N61    C56     1.357   1_565 A
C62    N63     1.358   1_545 A
C62    N67     1.358   1_455 A
N63    N64     1.332   .     A
N63    C62     1.358   1_565 A
N64    C65     1.358   1_565 A
C65    C68     1.468   .     S
C65    N64     1.358   1_545 A
C65    N66     1.358   1_455 A
N66    N67     1.332   .     A
N66    C65     1.358   1_655 A
N67    C62     1.358   1_655 A
C68    N69     1.357   1_455 A
C68    N73     1.358   1_545 A
N69    N70     1.332   .     A
N69    C68     1.357   1_655 A
N70    C71     1.357   1_655 A
C71    N70     1.357   1_455 A
C71    N72     1.357   1_545 A
C71    C6      1.467   1_545 S
N72    N73     1.332   .     A
N72    C71     1.357   1_565 A
N73    C68     1.358   1_565 A
