data_pcu+N155+E35
_audit_creation_date              2023-11-17
_audit_creation_method            'Materials Studio'
_symmetry_space_group_name_H-M    'P1'
_symmetry_Int_Tables_number       1
_symmetry_cell_setting            triclinic
loop_
_symmetry_equiv_pos_as_xyz
  x,y,z
_cell_length_a                    15.0214
_cell_length_b                    15.6393
_cell_length_c                    18.0654
_cell_angle_alpha                 90.3115
_cell_angle_beta                  87.8460
_cell_angle_gamma                 91.0540
loop_
_atom_site_label
_atom_site_type_symbol
_atom_site_fract_x
_atom_site_fract_y
_atom_site_fract_z
_atom_site_U_iso_or_equiv
_atom_site_adp_type
_atom_site_occupancy
C0     C     0.00216  -0.00276   0.21294   0.00000  Uiso   1.00
Ho1    Ho    0.00540  -0.00396   0.06916   0.00000  Uiso   1.00
C2     C     1.00235   0.99336   0.76783   0.00000  Uiso   1.00
Ho3    Ho    1.00665   0.99472   0.91145   0.00000  Uiso   1.00
O4     O     0.07516  -0.00391   0.17354   0.00000  Uiso   1.00
O5     O     0.93206  -0.00230   0.17497   0.00000  Uiso   1.00
O6     O     0.14079  -0.00465   0.10755   0.00000  Uiso   1.00
O7     O     0.11484   0.99508   0.98806   0.00000  Uiso   1.00
C8     C     0.17604  -0.00495   1.04496   0.00000  Uiso   1.00
C9     C     0.83554   0.99561  -0.06105   0.00000  Uiso   1.00
O10    O     0.00293   0.85666   0.05430   0.00000  Uiso   1.00
O11    O     1.00294   0.85469   0.92724   0.00000  Uiso   1.00
O12    O     0.93187   0.99340   0.81025   0.00000  Uiso   1.00
O13    O     0.07502   0.99412   0.80268   0.00000  Uiso   1.00
O14    O     0.86841   0.99428   0.87558   0.00000  Uiso   1.00
O15    O     0.89916  -0.00408  -0.00681   0.00000  Uiso   1.00
O16    O     1.00798   0.13503   0.92664   0.00000  Uiso   1.00
O17    O     0.01024   0.13514   0.05367   0.00000  Uiso   1.00
C18    C     1.01002   0.17426   0.99035   0.00000  Uiso   1.00
C19    C     0.00226   0.81646  -0.00887   0.00000  Uiso   1.00
C20    C     1.00542   0.54274  -0.00308   0.00000  Uiso   1.00
C21    C    -0.00624   0.58966   0.06302   0.00000  Uiso   1.00
C22    C    -0.00768   0.67856   1.06076   0.00000  Uiso   1.00
C23    C     0.00131   0.72169  -0.00710   0.00000  Uiso   1.00
C24    C     1.01036   0.67255  -0.07222   0.00000  Uiso   1.00
N25    N     1.01228   0.58565  -0.06858   0.00000  Uiso   1.00
C26    C     1.00918   0.44796  -0.00346   0.00000  Uiso   1.00
N27    N     0.99247   0.40419  -0.06704   0.00000  Uiso   1.00
C28    C     0.99368   0.31724  -0.07102   0.00000  Uiso   1.00
C29    C     0.01193   0.26900  -0.00817   0.00000  Uiso   1.00
C30    C     0.03120   0.31296   0.05737   0.00000  Uiso   1.00
C31    C     0.03065   0.40191   0.05983   0.00000  Uiso   1.00
H32    H    -0.01634   0.71341   1.11242   0.00000  Uiso   1.00
H33    H     1.01694   0.70298  -0.12585   0.00000  Uiso   1.00
H34    H     0.97894   0.28602  -0.12287   0.00000  Uiso   1.00
H35    H     0.04727   0.27868   0.10691   0.00000  Uiso   1.00
H36    H    -0.01558   0.55879   1.11619   0.00000  Uiso   1.00
H37    H     0.04815   0.43349   0.11076   0.00000  Uiso   1.00
C38    C     0.45845  -0.00486   0.00767   0.00000  Uiso   1.00
C39    C     0.42151   0.98294   1.07962   0.00000  Uiso   1.00
C40    C     0.32938   0.98335   1.09157   0.00000  Uiso   1.00
C41    C     0.27349  -0.00562   0.03215   0.00000  Uiso   1.00
C42    C     0.31235   0.00448  -0.03908   0.00000  Uiso   1.00
N43    N     0.40261   0.00481  -0.04938   0.00000  Uiso   1.00
C44    C     0.55618  -0.00347  -0.00820   0.00000  Uiso   1.00
N45    N     0.58752  -0.01545  -0.07924   0.00000  Uiso   1.00
C46    C     0.67616  -0.01543  -0.09795   0.00000  Uiso   1.00
C47    C     0.73908  -0.00314  -0.04330   0.00000  Uiso   1.00
C48    C     0.70860   1.01035   1.02990   0.00000  Uiso   1.00
C49    C     0.61758   1.01097   1.04764   0.00000  Uiso   1.00
H50    H     0.30183   0.97434   1.14731   0.00000  Uiso   1.00
H51    H     0.27125   0.01286  -0.08637   0.00000  Uiso   1.00
H52    H     0.69730  -0.02572  -0.15519   0.00000  Uiso   1.00
H53    H     0.75516   1.02123   1.07347   0.00000  Uiso   1.00
H54    H     0.46234   0.97180   1.12646   0.00000  Uiso   1.00
H55    H     0.59657   1.02394   1.10437   0.00000  Uiso   1.00
C56    C    -0.00857  -0.00396   0.44962   0.00000  Uiso   1.00
C57    C     0.91328   1.00842   0.41081   0.00000  Uiso   1.00
C58    C     0.91715   1.00861   0.33362   0.00000  Uiso   1.00
C59    C    -0.00145  -0.00217   0.29464   0.00000  Uiso   1.00
C60    C     0.07549  -0.01245   0.33504   0.00000  Uiso   1.00
N61    N     0.07003  -0.01323   0.41041   0.00000  Uiso   1.00
C62    C    -0.00854  -0.00583   0.53183   0.00000  Uiso   1.00
N63    N     0.07044   0.00361   0.56603   0.00000  Uiso   1.00
C64    C     0.07598   0.00292   0.64105   0.00000  Uiso   1.00
C65    C    -0.00128  -0.00739   0.68636   0.00000  Uiso   1.00
C66    C     0.91688   0.98169   0.65257   0.00000  Uiso   1.00
C67    C     0.91290   0.98174   0.57564   0.00000  Uiso   1.00
H68    H     0.85640   1.01782   0.30444   0.00000  Uiso   1.00
H69    H     0.13968  -0.02053   0.30687   0.00000  Uiso   1.00
H70    H     0.14050   0.01114   0.66512   0.00000  Uiso   1.00
H71    H     0.85583   0.97246   0.68564   0.00000  Uiso   1.00
H72    H     0.84969   1.01918   0.43886   0.00000  Uiso   1.00
H73    H     0.84889   0.97085   0.55165   0.00000  Uiso   1.00
loop_
_geom_bond_atom_site_label_1
_geom_bond_atom_site_label_2
_geom_bond_distance
_geom_bond_site_symmetry_2
_ccdc_geom_bond_type
C0     O4      1.285   .     A
C0     C59     1.475   .     S
C0     O5      1.278   1_455 A
Ho1    O4      2.191   .     S
Ho1    O6      2.173   .     S
Ho1    O17     2.194   .     S
Ho1    O5      2.170   1_455 S
Ho1    O7      2.161   1_544 S
Ho1    O10     2.195   1_545 S
Ho1    O15     2.144   1_455 S
C2     O12     1.283   .     A
C2     O13     1.280   1_655 A
C2     C65     1.475   1_665 S
Ho3    O11     2.209   .     S
Ho3    O12     2.181   .     S
Ho3    O14     2.198   .     S
Ho3    O7      2.174   1_655 S
Ho3    O13     2.183   1_655 S
Ho3    O15     2.147   1_566 S
Ho3    O16     2.210   1_565 S
O5     C0      1.278   1_655 A
O5     Ho1     2.170   1_655 S
O6     C8      1.230   1_554 D
O7     Ho1     2.161   1_566 S
O7     Ho3     2.174   1_455 S
O7     C8      1.405   1_565 S
C8     O6      1.230   1_556 D
C8     O7      1.405   1_545 S
C8     C41     1.474   1_556 S
C9     O14     1.230   1_554 D
C9     O15     1.394   1_565 S
C9     C47     1.473   1_565 S
O10    C19     1.300   .     A
O10    Ho1     2.195   1_565 S
O11    C19     1.302   1_656 A
O13    C2      1.280   1_455 A
O13    Ho3     2.183   1_455 S
O14    C9      1.230   1_556 D
O15    Ho1     2.144   1_655 S
O15    Ho3     2.147   1_544 S
O15    C9      1.394   1_545 S
O16    C18     1.302   .     A
O16    Ho3     2.210   1_545 S
O17    C18     1.300   1_454 A
C18    O17     1.300   1_656 A
C18    C29     1.481   1_656 S
C19    C23     1.483   .     S
C19    O11     1.302   1_454 A
C20    N25     1.363   .     A
C20    C26     1.484   .     S
C20    C21     1.405   1_655 A
C21    C20     1.405   1_455 A
C21    C22     1.392   1_554 A
C21    H36     1.081   1_554 S
C22    H32     1.083   .     S
C22    C21     1.392   1_556 A
C22    C23     1.403   1_556 A
C23    C22     1.403   1_554 A
C23    C24     1.405   1_455 A
C24    N25     1.362   .     A
C24    H33     1.082   .     S
C24    C23     1.405   1_655 A
C26    N27     1.363   .     A
C26    C31     1.405   1_655 A
N27    C28     1.362   .     A
C28    H34     1.082   .     S
C28    C29     1.405   1_655 A
C29    C30     1.403   .     A
C29    C28     1.405   1_455 A
C29    C18     1.481   1_454 S
C30    C31     1.392   .     A
C30    H35     1.083   .     S
C31    H37     1.081   .     S
C31    C26     1.405   1_455 A
H36    C21     1.081   1_556 S
C38    N43     1.364   .     A
C38    C44     1.485   .     S
C38    C39     1.407   1_544 A
C39    C40     1.393   .     A
C39    H54     1.080   .     S
C39    C38     1.407   1_566 A
C40    H50     1.083   .     S
C40    C41     1.401   1_566 A
C41    C42     1.401   .     A
C41    C40     1.401   1_544 A
C41    C8      1.474   1_554 S
C42    N43     1.361   .     A
C42    H51     1.083   .     S
C44    N45     1.364   .     A
C44    C49     1.407   1_544 A
N45    C46     1.361   .     A
C46    C47     1.402   .     A
C46    H52     1.082   .     S
C47    C48     1.399   1_544 A
C47    C9      1.473   1_545 S
C48    C49     1.393   .     A
C48    H53     1.083   .     S
C48    C47     1.399   1_566 A
C49    H55     1.080   .     S
C49    C44     1.407   1_566 A
C56    N61     1.363   .     A
C56    C62     1.486   .     S
C56    C57     1.407   1_445 A
C57    C58     1.393   .     A
C57    H72     1.080   .     S
C57    C56     1.407   1_665 A
C58    H68     1.083   .     S
C58    C59     1.400   1_665 A
C59    C60     1.402   .     A
C59    C58     1.400   1_445 A
C60    N61     1.361   .     A
C60    H69     1.082   .     S
C62    N63     1.363   .     A
C62    C67     1.407   1_445 A
N63    C64     1.361   .     A
C64    C65     1.402   .     A
C64    H70     1.082   .     S
C65    C66     1.400   1_445 A
C65    C2      1.475   1_445 S
C66    C67     1.393   .     A
C66    H71     1.083   .     S
C66    C65     1.400   1_665 A
C67    H73     1.080   .     S
C67    C62     1.407   1_665 A
