data_pcu+N394+E35
_audit_creation_date              2023-11-17
_audit_creation_method            'Materials Studio'
_symmetry_space_group_name_H-M    'P1'
_symmetry_Int_Tables_number       1
_symmetry_cell_setting            triclinic
loop_
_symmetry_equiv_pos_as_xyz
  x,y,z
_cell_length_a                    18.5902
_cell_length_b                    15.8204
_cell_length_c                    14.1551
_cell_angle_alpha                 72.2848
_cell_angle_beta                  108.0586
_cell_angle_gamma                 88.9187
loop_
_atom_site_label
_atom_site_type_symbol
_atom_site_fract_x
_atom_site_fract_y
_atom_site_fract_z
_atom_site_U_iso_or_equiv
_atom_site_adp_type
_atom_site_occupancy
Pr0    Pr    0.08567   0.99046   0.00900   0.00000  Uiso   1.00
Pr1    Pr    0.91514  -0.00593   1.01450   0.00000  Uiso   1.00
O2     O     0.93835   0.13836   1.01245   0.00000  Uiso   1.00
O3     O     0.06274   0.13420   0.01243   0.00000  Uiso   1.00
O4     O     0.17007   0.02985   0.92243   0.00000  Uiso   1.00
O5     O     0.21382   0.95240   0.08700   0.00000  Uiso   1.00
O6     O     1.03120   0.93775   0.13440   0.00000  Uiso   1.00
O7     O     0.10534   1.03635   0.15464   0.00000  Uiso   1.00
C8     C     0.93978   0.00245   0.82902   0.00000  Uiso   1.00
C9     C     1.00050   0.17517   0.01126   0.00000  Uiso   1.00
C10    C     0.22852  -0.00850   1.00281   0.00000  Uiso   1.00
C11    C     0.76855  -0.00435   0.00626   0.00000  Uiso   1.00
C12    C     0.00011   0.81143   1.00634   0.00000  Uiso   1.00
C13    C     0.06353   0.99073   0.19266   0.00000  Uiso   1.00
O14    O     0.06112   0.84972   0.00310   0.00000  Uiso   1.00
O15    O     0.93853   0.85014   1.00966   0.00000  Uiso   1.00
O16    O     0.82380   0.95542   0.09031   0.00000  Uiso   1.00
O17    O     0.78858   0.03470   0.92688   0.00000  Uiso   1.00
O18    O    -0.02904   0.05115   0.89244   0.00000  Uiso   1.00
O19    O     0.89715  -0.04449   0.86280   0.00000  Uiso   1.00
C20    C     1.00474   0.54118   0.00464   0.00000  Uiso   1.00
C21    C     0.06196   0.59219  -0.01813   0.00000  Uiso   1.00
C22    C     0.06001   0.68011  -0.01787   0.00000  Uiso   1.00
C23    C     0.00077   0.71851   0.00362   0.00000  Uiso   1.00
C24    C     0.94327   0.66633   1.02277   0.00000  Uiso   1.00
N25    N     0.94676   0.58020   1.02302   0.00000  Uiso   1.00
C26    C     1.00558   0.44651   0.00811   0.00000  Uiso   1.00
N27    N     0.93925   0.40911   0.99422   0.00000  Uiso   1.00
C28    C     0.93598   0.32283   0.99565   0.00000  Uiso   1.00
C29    C     0.00230   0.26872   0.01151   0.00000  Uiso   1.00
C30    C     0.07139   0.30555   0.02800   0.00000  Uiso   1.00
C31    C     0.07339   0.39369   0.02706   0.00000  Uiso   1.00
H32    H     0.10491   0.71807  -0.03508   0.00000  Uiso   1.00
H33    H     0.89617   0.69339   1.03889   0.00000  Uiso   1.00
H34    H     0.88153   0.29704   0.98339   0.00000  Uiso   1.00
H35    H     0.12430   0.26611   0.04253   0.00000  Uiso   1.00
H36    H     0.10749   0.56555  -0.03744   0.00000  Uiso   1.00
H37    H     0.12794   0.41903   0.04279   0.00000  Uiso   1.00
C38    C     0.45505   0.99773  -0.01027   0.00000  Uiso   1.00
C39    C     0.39225   0.02758   0.89623   0.00000  Uiso   1.00
C40    C     0.31845   0.02560   0.90088   0.00000  Uiso   1.00
C41    C     0.30665  -0.00722  -0.00206   0.00000  Uiso   1.00
C42    C     0.37053   0.96171   0.08938   0.00000  Uiso   1.00
N43    N     0.44203   0.96511   0.08306   0.00000  Uiso   1.00
C44    C     0.53506   0.99919  -0.00961   0.00000  Uiso   1.00
N45    N     0.59215   0.94998   0.07917   0.00000  Uiso   1.00
C46    C     0.66690   0.94789   0.08640   0.00000  Uiso   1.00
C47    C     0.68790  -0.00266   0.00062   0.00000  Uiso   1.00
C48    C     0.63037   0.04917   0.90876   0.00000  Uiso   1.00
C49    C     0.55418   0.05084   0.90342   0.00000  Uiso   1.00
H50    H     0.27058   0.04904   0.82835   0.00000  Uiso   1.00
H51    H     0.36377   0.93555   0.16580   0.00000  Uiso   1.00
H52    H     0.70969   0.90733   0.15891   0.00000  Uiso   1.00
H53    H     0.64431   0.08910   0.84119   0.00000  Uiso   1.00
H54    H     0.39907   0.05108   0.81984   0.00000  Uiso   1.00
H55    H     0.51165   0.09344   0.83230   0.00000  Uiso   1.00
C56    C     1.01716   0.00398   0.46529   0.00000  Uiso   1.00
C57    C     0.07403   1.05096   0.43432   0.00000  Uiso   1.00
C58    C     0.08910   1.04636   0.34539   0.00000  Uiso   1.00
C59    C     0.04878  -0.00581   0.28787   0.00000  Uiso   1.00
C60    C     0.99359  -0.05312   0.32194   0.00000  Uiso   1.00
N61    N     0.97927  -0.04697   0.40839   0.00000  Uiso   1.00
C62    C     0.99756   0.00683   0.55849   0.00000  Uiso   1.00
N63    N     0.95374  -0.05402   0.59608   0.00000  Uiso   1.00
C64    C     0.93346  -0.05623   0.68120   0.00000  Uiso   1.00
C65    C    -0.04207   0.00527   0.73412   0.00000  Uiso   1.00
C66    C     0.00232   1.06902   0.69664   0.00000  Uiso   1.00
C67    C     0.02177   1.07063   0.60868   0.00000  Uiso   1.00
H68    H     0.13254   1.08341   0.32180   0.00000  Uiso   1.00
H69    H     0.96142  -0.09426   0.27953   0.00000  Uiso   1.00
H70    H     0.89917  -0.10660   0.70814   0.00000  Uiso   1.00
H71    H     0.02185   1.11795   0.73519   0.00000  Uiso   1.00
H72    H     0.10764   1.09018   0.47793   0.00000  Uiso   1.00
H73    H     0.05457   1.12220   0.58081   0.00000  Uiso   1.00
loop_
_geom_bond_atom_site_label_1
_geom_bond_atom_site_label_2
_geom_bond_distance
_geom_bond_site_symmetry_2
_ccdc_geom_bond_type
Pr0    O5      2.273   .     S
Pr0    O7      2.316   .     S
Pr0    O14     2.302   .     S
Pr0    O3      2.323   1_565 S
Pr0    O4      2.262   1_564 S
Pr0    O6      2.262   1_455 S
Pr0    O18     2.229   1_564 S
Pr1    O2      2.324   .     S
Pr1    O17     2.266   .     S
Pr1    O19     2.336   .     S
Pr1    O6      2.251   1_546 S
Pr1    O15     2.335   1_545 S
Pr1    O16     2.276   1_546 S
Pr1    O18     2.253   1_655 S
O2     C9      1.306   1_556 D
O3     Pr0     2.323   1_545 S
O3     C9      1.309   1_455 S
O4     C10     1.277   .     A
O4     Pr0     2.262   1_546 S
O5     C10     1.280   1_564 A
O6     Pr0     2.262   1_655 S
O6     Pr1     2.251   1_564 S
O6     C13     1.370   1_655 S
O7     C13     1.208   .     D
C8     O19     1.204   .     D
C8     O18     1.360   1_655 S
C8     C65     1.472   1_655 S
C9     O2      1.306   1_554 D
C9     O3      1.309   1_655 S
C9     C29     1.482   1_655 S
C10    O5      1.280   1_546 A
C10    C41     1.476   1_556 S
C11    C47     1.476   .     S
C11    O16     1.278   1_545 A
C11    O17     1.276   1_554 A
C12    O14     1.303   1_556 A
C12    O15     1.309   1_455 A
C12    C23     1.482   1_556 S
C13    O6      1.370   1_455 S
C13    C59     1.472   1_565 S
O14    C12     1.303   1_554 A
O15    Pr1     2.335   1_565 S
O15    C12     1.309   1_655 A
O16    Pr1     2.276   1_564 S
O16    C11     1.278   1_565 A
O17    C11     1.276   1_556 A
O18    Pr0     2.229   1_546 S
O18    Pr1     2.253   1_455 S
O18    C8      1.360   1_455 S
C20    C26     1.483   .     S
C20    C21     1.405   1_655 A
C20    N25     1.363   1_554 A
C21    C22     1.392   .     A
C21    H36     1.081   .     S
C21    C20     1.405   1_455 A
C22    C23     1.403   .     A
C22    H32     1.083   .     S
C23    C24     1.405   1_454 A
C23    C12     1.482   1_554 S
C24    N25     1.362   .     A
C24    H33     1.082   .     S
C24    C23     1.405   1_656 A
N25    C20     1.363   1_556 A
C26    N27     1.363   1_554 A
C26    C31     1.405   1_655 A
N27    C28     1.362   .     A
N27    C26     1.363   1_556 A
C28    H34     1.082   .     S
C28    C29     1.405   1_656 A
C29    C30     1.403   .     A
C29    C28     1.405   1_454 A
C29    C9      1.482   1_455 S
C30    C31     1.392   .     A
C30    H35     1.083   .     S
C31    H37     1.081   .     S
C31    C26     1.405   1_455 A
C38    N43     1.363   .     A
C38    C44     1.485   .     S
C38    C39     1.407   1_564 A
C39    C40     1.394   .     A
C39    H54     1.080   .     S
C39    C38     1.407   1_546 A
C40    H50     1.083   .     S
C40    C41     1.401   1_556 A
C41    C40     1.401   1_554 A
C41    C42     1.402   1_545 A
C41    C10     1.476   1_554 S
C42    N43     1.361   .     A
C42    H51     1.082   .     S
C42    C41     1.402   1_565 A
C44    N45     1.363   .     A
C44    C49     1.407   1_564 A
N45    C46     1.360   .     A
C46    H52     1.082   .     S
C46    C47     1.402   1_565 A
C47    C46     1.402   1_545 A
C47    C48     1.401   1_554 A
C48    C49     1.394   .     A
C48    H53     1.083   .     S
C48    C47     1.401   1_556 A
C49    H55     1.080   .     S
C49    C44     1.407   1_546 A
C56    N61     1.364   .     A
C56    C62     1.486   .     S
C56    C57     1.408   1_645 A
C57    C58     1.394   .     A
C57    H72     1.079   .     S
C57    C56     1.408   1_465 A
C58    H68     1.083   .     S
C58    C59     1.400   1_565 A
C59    C58     1.400   1_545 A
C59    C60     1.400   1_455 A
C59    C13     1.472   1_545 S
C60    N61     1.361   .     A
C60    H69     1.082   .     S
C60    C59     1.400   1_655 A
C62    N63     1.364   .     A
C62    C67     1.408   1_645 A
N63    C64     1.361   .     A
C64    H70     1.082   .     S
C64    C65     1.401   1_655 A
C65    C64     1.401   1_455 A
C65    C66     1.399   1_545 A
C65    C8      1.472   1_455 S
C66    C67     1.393   .     A
C66    H71     1.083   .     S
C66    C65     1.399   1_565 A
C67    H73     1.079   .     S
C67    C62     1.408   1_465 A
