data_pcu+N123+E28
_audit_creation_date              2023-11-17
_audit_creation_method            'Materials Studio'
_symmetry_space_group_name_H-M    'P1'
_symmetry_Int_Tables_number       1
_symmetry_cell_setting            triclinic
loop_
_symmetry_equiv_pos_as_xyz
  x,y,z
_cell_length_a                    22.5792
_cell_length_b                    20.1167
_cell_length_c                    19.4496
_cell_angle_alpha                 90.1374
_cell_angle_beta                  88.3891
_cell_angle_gamma                 89.9775
loop_
_atom_site_label
_atom_site_type_symbol
_atom_site_fract_x
_atom_site_fract_y
_atom_site_fract_z
_atom_site_U_iso_or_equiv
_atom_site_adp_type
_atom_site_occupancy
Ce0    Ce    0.06267   1.00079   0.99733   0.00000  Uiso   1.00
Ce1    Ce    0.93487   0.00081   0.00153   0.00000  Uiso   1.00
C2     C     0.95192   1.00027   0.86424   0.00000  Uiso   1.00
C3     C     0.18230   1.00083   0.99798   0.00000  Uiso   1.00
C4     C     0.99880   0.85664  -0.00030   0.00000  Uiso   1.00
C5     C     0.04562   0.00131   0.13463   0.00000  Uiso   1.00
C6     C     0.81524   0.00083   0.00090   0.00000  Uiso   1.00
C7     C    -0.00126   0.14497   0.99915   0.00000  Uiso   1.00
O8     O     0.90238   0.00036   0.89181   0.00000  Uiso   1.00
O9     O    -0.00125   1.00045   0.90998   0.00000  Uiso   1.00
O10    O     0.15319   1.00051   0.94254   0.00000  Uiso   1.00
O11    O     0.15024   1.00111   0.05338   0.00000  Uiso   1.00
O12    O     0.04936   0.88725  -0.00109   0.00000  Uiso   1.00
O13    O     0.94822   0.88727   0.00039   0.00000  Uiso   1.00
O14    O     0.09516   1.00127   0.10706   0.00000  Uiso   1.00
O15    O     0.99879   0.00113   0.08889   0.00000  Uiso   1.00
O16    O     0.84435   0.00112   0.05633   0.00000  Uiso   1.00
O17    O     0.84730   0.00054   0.94549   0.00000  Uiso   1.00
O18    O     0.94818   0.11436   0.99996   0.00000  Uiso   1.00
O19    O     0.04932   0.11434   0.99846   0.00000  Uiso   1.00
C20    C     0.99881   0.64221   0.99976   0.00000  Uiso   1.00
C21    C     0.05238   0.67780   1.00023   0.00000  Uiso   1.00
C22    C     0.05238   0.74728   1.00027   0.00000  Uiso   1.00
C23    C     0.99881   0.78290   0.99977   0.00000  Uiso   1.00
C24    C     0.94523   0.74732  -0.00069   0.00000  Uiso   1.00
C25    C     0.94524   0.67784  -0.00067   0.00000  Uiso   1.00
C26    C     0.99880   0.56847   0.99960   0.00000  Uiso   1.00
N27    N     0.94709   0.53396  -0.00007   0.00000  Uiso   1.00
N28    N     0.94708   0.46775  -0.00034   0.00000  Uiso   1.00
C29    C     0.99877   0.43314   0.99900   0.00000  Uiso   1.00
N30    N     1.05047   0.46765   0.99863   0.00000  Uiso   1.00
N31    N     1.05049   0.53387   0.99891   0.00000  Uiso   1.00
C32    C     0.99875   0.35940   0.99889   0.00000  Uiso   1.00
C33    C     0.05232   0.32377   0.99910   0.00000  Uiso   1.00
C34    C     0.05232   0.25429   0.99923   0.00000  Uiso   1.00
C35    C     0.99874   0.21871   0.99904   0.00000  Uiso   1.00
C36    C     0.94516   0.25434  -0.00124   0.00000  Uiso   1.00
C37    C     0.94517   0.32382  -0.00128   0.00000  Uiso   1.00
H38    H     0.09448   0.65204   1.00064   0.00000  Uiso   1.00
H39    H     0.09447   0.77302   1.00072   0.00000  Uiso   1.00
H40    H     0.90313   0.77308  -0.00111   0.00000  Uiso   1.00
H41    H     0.90313   0.65211  -0.00098   0.00000  Uiso   1.00
H42    H     0.09444   0.34950   0.99915   0.00000  Uiso   1.00
H43    H     0.09442   0.22853   0.99949   0.00000  Uiso   1.00
H44    H     0.90305   0.22860  -0.00145   0.00000  Uiso   1.00
H45    H     0.90306   0.34958  -0.00146   0.00000  Uiso   1.00
C46    C     0.37281   1.00102   0.99883   0.00000  Uiso   1.00
C47    C     0.34281   0.99932   0.93643   0.00000  Uiso   1.00
C48    C     0.28090   0.99929   0.93616   0.00000  Uiso   1.00
C49    C     0.24767   1.00088   0.99823   0.00000  Uiso   1.00
C50    C     0.27745   1.00255   0.06060   0.00000  Uiso   1.00
C51    C     0.33935   1.00268   0.06092   0.00000  Uiso   1.00
C52    C     0.43850   1.00103   0.99914   0.00000  Uiso   1.00
N53    N     0.46762   1.00412   0.05924   0.00000  Uiso   1.00
N54    N     0.52660   1.00409   0.05953   0.00000  Uiso   1.00
C55    C     0.55904   1.00096   0.99973   0.00000  Uiso   1.00
N56    N     0.52993   0.99788   0.93963   0.00000  Uiso   1.00
N57    N     0.47094   0.99791   0.93934   0.00000  Uiso   1.00
C58    C     0.62473   1.00091   1.00005   0.00000  Uiso   1.00
C59    C     0.65819   0.99927   0.93795   0.00000  Uiso   1.00
C60    C     0.72008   0.99929   0.93827   0.00000  Uiso   1.00
C61    C     0.74986   1.00085   1.00064   0.00000  Uiso   1.00
C62    C     0.71664   1.00245   0.06272   0.00000  Uiso   1.00
C63    C     0.65474   1.00252   0.06245   0.00000  Uiso   1.00
H64    H     0.36709   0.99805   0.88764   0.00000  Uiso   1.00
H65    H     0.25905  -0.00201   0.88731   0.00000  Uiso   1.00
H66    H     0.25289   1.00384   0.10924   0.00000  Uiso   1.00
H67    H     0.36092   1.00399   0.10993   0.00000  Uiso   1.00
H68    H     0.63662   0.99803   0.88894   0.00000  Uiso   1.00
H69    H     0.74464  -0.00197   0.88964   0.00000  Uiso   1.00
H70    H     0.73850   1.00368   0.11156   0.00000  Uiso   1.00
H71    H     0.63046   1.00378   0.11123   0.00000  Uiso   1.00
C72    C     0.01755   0.00128   0.35420   0.00000  Uiso   1.00
C73    C     0.96925   0.00022   0.31007   0.00000  Uiso   1.00
C74    C     0.97851   0.00032   0.23871   0.00000  Uiso   1.00
C75    C     0.03618   0.00143   0.20998   0.00000  Uiso   1.00
C76    C     0.08453   1.00254   0.25381   0.00000  Uiso   1.00
C77    C     0.07532   1.00248   0.32518   0.00000  Uiso   1.00
C78    C     0.00775   0.00103   0.42994   0.00000  Uiso   1.00
N79    N     0.05428   1.00227   0.47272   0.00000  Uiso   1.00
N80    N     0.04549   1.00196   0.54073   0.00000  Uiso   1.00
C81    C    -0.01022   0.00039   0.56893   0.00000  Uiso   1.00
N82    N     0.94325  -0.00087   0.52616   0.00000  Uiso   1.00
N83    N     0.95205  -0.00056   0.45815   0.00000  Uiso   1.00
C84    C    -0.02002   0.00018   0.64467   0.00000  Uiso   1.00
C85    C     0.92220  -0.00026   0.67369   0.00000  Uiso   1.00
C86    C     0.91300  -0.00028   0.74506   0.00000  Uiso   1.00
C87    C    -0.03865   0.00010   0.78890   0.00000  Uiso   1.00
C88    C     0.01904   1.00045   0.76016   0.00000  Uiso   1.00
C89    C     0.02829   1.00050   0.68880   0.00000  Uiso   1.00
H90    H     0.92418  -0.00072   0.33057   0.00000  Uiso   1.00
H91    H     0.94046  -0.00056   0.20602   0.00000  Uiso   1.00
H92    H     0.12950   1.00344   0.23292   0.00000  Uiso   1.00
H93    H     0.11355   1.00333   0.35754   0.00000  Uiso   1.00
H94    H     0.88396  -0.00050   0.64134   0.00000  Uiso   1.00
H95    H     0.86802  -0.00055   0.76594   0.00000  Uiso   1.00
H96    H     0.05709   1.00074   0.79284   0.00000  Uiso   1.00
H97    H     0.07337   1.00081   0.66830   0.00000  Uiso   1.00
loop_
_geom_bond_atom_site_label_1
_geom_bond_atom_site_label_2
_geom_bond_distance
_geom_bond_site_symmetry_2
_ccdc_geom_bond_type
Ce0    O9      2.260   .     S
Ce0    O10     2.278   .     S
Ce0    O11     2.284   1_556 S
Ce0    O12     2.304   1_556 S
Ce0    O14     2.276   1_556 S
Ce0    O15     2.260   1_466 S
Ce0    O19     2.304   1_565 S
Ce1    O15     2.260   .     S
Ce1    O16     2.278   .     S
Ce1    O8      2.276   1_554 S
Ce1    O9      2.260   1_644 S
Ce1    O13     2.304   1_545 S
Ce1    O17     2.284   1_554 S
Ce1    O18     2.304   1_554 S
C2     O8      1.227   1_565 D
C2     O9      1.401   1_655 S
C2     C87     1.475   1_665 S
C3     O10     1.278   .     A
C3     C49     1.476   .     S
C3     O11     1.281   1_556 A
C4     O13     1.297   .     A
C4     O12     1.297   1_655 A
C4     C23     1.483   1_554 S
C5     C75     1.475   .     S
C5     O14     1.227   1_545 D
C5     O15     1.401   1_455 S
C6     O16     1.278   .     A
C6     O17     1.281   1_554 A
C6     C61     1.476   1_544 S
C7     O19     1.297   .     A
C7     O18     1.297   1_455 A
C7     C35     1.483   1_455 S
O8     Ce1     2.276   1_556 S
O8     C2      1.227   1_545 D
O9     Ce1     2.260   1_466 S
O9     C2      1.401   1_455 S
O11    Ce0     2.284   1_554 S
O11    C3      1.281   1_554 A
O12    Ce0     2.304   1_554 S
O12    C4      1.297   1_455 A
O13    Ce1     2.304   1_565 S
O14    Ce0     2.276   1_554 S
O14    C5      1.227   1_565 D
O15    Ce0     2.260   1_644 S
O15    C5      1.401   1_655 S
O17    Ce1     2.284   1_556 S
O17    C6      1.281   1_556 A
O18    Ce1     2.304   1_556 S
O18    C7      1.297   1_655 A
O19    Ce0     2.304   1_545 S
C20    C26     1.483   .     S
C20    C21     1.406   1_655 A
C20    C25     1.406   1_556 A
C21    C22     1.398   .     A
C21    H38     1.083   .     S
C21    C20     1.406   1_455 A
C22    H39     1.083   .     S
C22    C23     1.406   1_455 A
C23    C22     1.406   1_655 A
C23    C24     1.406   1_556 A
C23    C4      1.483   1_556 S
C24    C25     1.398   .     A
C24    H40     1.083   .     S
C24    C23     1.406   1_554 A
C25    H41     1.083   .     S
C25    C20     1.406   1_554 A
C26    N31     1.358   .     A
C26    N27     1.358   1_556 A
N27    N28     1.332   .     A
N27    C26     1.358   1_554 A
N28    C29     1.358   1_554 A
C29    N30     1.358   .     A
C29    C32     1.484   .     S
C29    N28     1.358   1_556 A
N30    N31     1.332   .     A
C32    C33     1.406   1_655 A
C32    C37     1.406   1_556 A
C33    C34     1.398   .     A
C33    H42     1.083   .     S
C33    C32     1.406   1_455 A
C34    H43     1.083   .     S
C34    C35     1.406   1_455 A
C35    C34     1.406   1_655 A
C35    C36     1.406   1_556 A
C35    C7      1.483   1_655 S
C36    C37     1.398   .     A
C36    H44     1.083   .     S
C36    C35     1.406   1_554 A
C37    H45     1.083   .     S
C37    C32     1.406   1_554 A
C46    C47     1.407   .     A
C46    C52     1.483   .     S
C46    C51     1.407   1_556 A
C47    C48     1.398   .     A
C47    H64     1.083   .     S
C48    C49     1.404   .     A
C48    H65     1.083   1_565 S
C49    C50     1.404   1_556 A
C50    C51     1.398   .     A
C50    H66     1.083   .     S
C50    C49     1.404   1_554 A
C51    H67     1.083   .     S
C51    C46     1.407   1_554 A
C52    N57     1.358   .     A
C52    N53     1.358   1_556 A
N53    N54     1.332   .     A
N53    C52     1.358   1_554 A
N54    C55     1.358   1_554 A
C55    N56     1.358   .     A
C55    C58     1.483   .     S
C55    N54     1.358   1_556 A
N56    N57     1.332   .     A
C58    C59     1.407   .     A
C58    C63     1.407   1_556 A
C59    C60     1.398   .     A
C59    H68     1.083   .     S
C60    C61     1.404   .     A
C60    H69     1.083   1_565 S
C61    C62     1.404   1_556 A
C61    C6      1.476   1_566 S
C62    C63     1.398   .     A
C62    H70     1.083   .     S
C62    C61     1.404   1_554 A
C63    H71     1.083   .     S
C63    C58     1.407   1_554 A
H65    C48     1.083   1_545 S
H69    C60     1.083   1_545 S
C72    C78     1.483   .     S
C72    C73     1.407   1_455 A
C72    C77     1.407   1_545 A
C73    C74     1.398   .     A
C73    H90     1.083   .     S
C73    C72     1.407   1_655 A
C74    H91     1.083   .     S
C74    C75     1.403   1_655 A
C75    C74     1.403   1_455 A
C75    C76     1.404   1_545 A
C76    C77     1.398   .     A
C76    H92     1.083   .     S
C76    C75     1.404   1_565 A
C77    H93     1.083   .     S
C77    C72     1.407   1_565 A
C78    N79     1.358   1_545 A
C78    N83     1.358   1_455 A
N79    N80     1.332   .     A
N79    C78     1.358   1_565 A
N80    C81     1.358   1_565 A
C81    C84     1.483   .     S
C81    N80     1.358   1_545 A
C81    N82     1.358   1_455 A
N82    N83     1.332   .     A
N82    C81     1.358   1_655 A
N83    C78     1.358   1_655 A
C84    C85     1.407   1_455 A
C84    C89     1.407   1_545 A
C85    C86     1.398   .     A
C85    H94     1.083   .     S
C85    C84     1.407   1_655 A
C86    H95     1.083   .     S
C86    C87     1.404   1_655 A
C87    C86     1.404   1_455 A
C87    C88     1.403   1_545 A
C87    C2      1.475   1_445 S
C88    C89     1.398   .     A
C88    H96     1.083   .     S
C88    C87     1.403   1_565 A
C89    H97     1.083   .     S
C89    C84     1.407   1_565 A
