data_pcu+N155+E8
_audit_creation_date              2023-11-17
_audit_creation_method            'Materials Studio'
_symmetry_space_group_name_H-M    'P1'
_symmetry_Int_Tables_number       1
_symmetry_cell_setting            triclinic
loop_
_symmetry_equiv_pos_as_xyz
  x,y,z
_cell_length_a                    13.1100
_cell_length_b                    13.3797
_cell_length_c                    15.8074
_cell_angle_alpha                 95.7532
_cell_angle_beta                  75.8353
_cell_angle_gamma                 90.3328
loop_
_atom_site_label
_atom_site_type_symbol
_atom_site_fract_x
_atom_site_fract_y
_atom_site_fract_z
_atom_site_U_iso_or_equiv
_atom_site_adp_type
_atom_site_occupancy
C0     C    -0.02543   0.00084   0.25881   0.00000  Uiso   1.00
Ho1    Ho   -0.00959   0.00048   0.09191   0.00000  Uiso   1.00
C2     C     1.02561   0.99936   0.74139   0.00000  Uiso   1.00
Ho3    Ho    1.00978   0.99973   0.90829   0.00000  Uiso   1.00
O4     O     0.06354   0.00020   0.20226   0.00000  Uiso   1.00
O5     O     0.89485   0.00141   0.22565   0.00000  Uiso   1.00
O6     O     0.14682  -0.00041   0.11766   0.00000  Uiso   1.00
O7     O     0.12696   0.99917   0.98334   0.00000  Uiso   1.00
C8     C     0.19382  -0.00105   1.04007   0.00000  Uiso   1.00
C9     C     0.80636   1.00125  -0.03986   0.00000  Uiso   1.00
O10    O    -0.00460   0.83626   0.05994   0.00000  Uiso   1.00
O11    O     1.00857   0.83569   0.91226   0.00000  Uiso   1.00
O12    O     0.93664   1.00000   0.79795   0.00000  Uiso   1.00
O13    O     0.10533   0.99878   0.77455   0.00000  Uiso   1.00
O14    O     0.85336   1.00062   0.88255   0.00000  Uiso   1.00
O15    O     0.87322   0.00104   0.01687   0.00000  Uiso   1.00
O16    O     1.00480   0.16395   0.94026   0.00000  Uiso   1.00
O17    O    -0.00838   0.16451   0.08795   0.00000  Uiso   1.00
C18    C     0.99784   0.21010   1.01797   0.00000  Uiso   1.00
C19    C     0.00235   0.79011  -0.01776   0.00000  Uiso   1.00
C20    C    -0.00214   0.52795   0.04056   0.00000  Uiso   1.00
C21    C     1.00248   0.47225   0.95961   0.00000  Uiso   1.00
N22    N     1.00737   0.52091   0.88745   0.00000  Uiso   1.00
C23    C     1.00774   0.62300   0.89251   0.00000  Uiso   1.00
C24    C     1.00291   0.67930   0.97363   0.00000  Uiso   1.00
N25    N    -0.00188   0.62983   0.04574   0.00000  Uiso   1.00
N26    N    -0.00706   0.47929   0.11273   0.00000  Uiso   1.00
C27    C    -0.00752   0.37721   0.10768   0.00000  Uiso   1.00
C28    C    -0.00269   0.32090   0.02657   0.00000  Uiso   1.00
N29    N     1.00219   0.37037   0.95444   0.00000  Uiso   1.00
H30    H     1.01160   0.65956   0.83380   0.00000  Uiso   1.00
H31    H    -0.01140   0.34065   0.16640   0.00000  Uiso   1.00
C32    C     0.47499   1.00236   0.04492   0.00000  Uiso   1.00
C33    C     0.52520  -0.00222   0.95528   0.00000  Uiso   1.00
N34    N     0.46643  -0.00642   0.89529   0.00000  Uiso   1.00
C35    C     0.35953  -0.00617   0.92085   0.00000  Uiso   1.00
C36    C     0.30906  -0.00163   1.01048   0.00000  Uiso   1.00
N37    N     0.36829   1.00250   0.07047   0.00000  Uiso   1.00
N38    N     0.53375   1.00664   0.10492   0.00000  Uiso   1.00
C39    C     0.64066   1.00643   0.07936   0.00000  Uiso   1.00
C40    C     0.69113   1.00183  -0.01028   0.00000  Uiso   1.00
N41    N     0.63189  -0.00236   0.92974   0.00000  Uiso   1.00
H42    H     0.31452  -0.00963   0.87167   0.00000  Uiso   1.00
H43    H     0.68565   1.00998   0.12853   0.00000  Uiso   1.00
C44    C     0.04941   1.00021   0.47013   0.00000  Uiso   1.00
C45    C     0.95077  -0.00004   0.53007   0.00000  Uiso   1.00
N46    N     0.86192   0.00009   0.50047   0.00000  Uiso   1.00
C47    C     0.86717   0.00048   0.41350   0.00000  Uiso   1.00
C48    C     0.96581   0.00072   0.35328   0.00000  Uiso   1.00
N49    N     0.05471   1.00058   0.38331   0.00000  Uiso   1.00
N50    N     0.13826   1.00008   0.49973   0.00000  Uiso   1.00
C51    C     0.13301   0.99969   0.58670   0.00000  Uiso   1.00
C52    C     0.03437   0.99947   0.64692   0.00000  Uiso   1.00
N53    N     0.94547  -0.00040   0.61689   0.00000  Uiso   1.00
H54    H     0.79510   0.00052   0.39167   0.00000  Uiso   1.00
H55    H     0.20509   0.99965   0.60853   0.00000  Uiso   1.00
loop_
_geom_bond_atom_site_label_1
_geom_bond_atom_site_label_2
_geom_bond_distance
_geom_bond_site_symmetry_2
_ccdc_geom_bond_type
C0     O4      1.284   .     A
C0     O5      1.279   1_455 A
C0     C48     1.470   1_455 S
Ho1    O4      2.187   .     S
Ho1    O6      2.186   .     S
Ho1    O17     2.202   .     S
Ho1    O5      2.177   1_455 S
Ho1    O7      2.154   1_544 S
Ho1    O10     2.202   1_545 S
Ho1    O15     2.159   1_455 S
C2     O12     1.284   .     A
C2     O13     1.279   1_655 A
C2     C52     1.470   1_655 S
Ho3    O11     2.202   .     S
Ho3    O12     2.187   .     S
Ho3    O14     2.186   .     S
Ho3    O7      2.159   1_655 S
Ho3    O13     2.177   1_655 S
Ho3    O15     2.154   1_566 S
Ho3    O16     2.202   1_565 S
O5     C0      1.279   1_655 A
O5     Ho1     2.177   1_655 S
O6     C8      1.230   1_554 D
O7     Ho1     2.154   1_566 S
O7     Ho3     2.159   1_455 S
O7     C8      1.399   1_565 S
C8     C36     1.468   .     S
C8     O6      1.230   1_556 D
C8     O7      1.399   1_545 S
C9     C40     1.468   .     S
C9     O14     1.230   1_554 D
C9     O15     1.399   1_565 S
O10    C19     1.301   .     A
O10    Ho1     2.202   1_565 S
O11    C19     1.301   1_656 A
O13    C2      1.279   1_455 A
O13    Ho3     2.177   1_455 S
O14    C9      1.230   1_556 D
O15    Ho1     2.159   1_655 S
O15    Ho3     2.154   1_544 S
O15    C9      1.399   1_545 S
O16    C18     1.301   .     A
O16    Ho3     2.202   1_545 S
O17    C18     1.301   1_454 A
C18    O17     1.301   1_656 A
C18    C28     1.475   1_656 S
C19    O11     1.301   1_454 A
C19    C24     1.475   1_454 S
C20    N25     1.357   .     A
C20    N26     1.357   .     A
C20    C21     1.403   1_454 A
C21    N22     1.357   .     A
C21    N29     1.357   .     A
C21    C20     1.403   1_656 A
N22    C23     1.360   .     A
C23    C24     1.408   .     A
C23    H30     1.082   .     S
C24    N25     1.363   1_656 A
C24    C19     1.475   1_656 S
N25    C24     1.363   1_454 A
N26    C27     1.360   .     A
C27    C28     1.408   .     A
C27    H31     1.082   .     S
C28    N29     1.363   1_454 A
C28    C18     1.475   1_454 S
N29    C28     1.363   1_656 A
C32    N37     1.358   .     A
C32    N38     1.357   .     A
C32    C33     1.404   1_564 A
C33    N34     1.357   .     A
C33    N41     1.358   .     A
C33    C32     1.404   1_546 A
N34    C35     1.360   .     A
C35    C36     1.405   .     A
C35    H42     1.082   .     S
C36    N37     1.362   1_546 A
N37    C36     1.362   1_564 A
N38    C39     1.360   .     A
C39    C40     1.405   .     A
C39    H43     1.082   .     S
C40    N41     1.362   1_564 A
N41    C40     1.362   1_546 A
C44    N49     1.358   .     A
C44    N50     1.357   .     A
C44    C45     1.404   1_465 A
C45    N46     1.357   .     A
C45    N53     1.358   .     A
C45    C44     1.404   1_645 A
N46    C47     1.360   .     A
C47    C48     1.406   .     A
C47    H54     1.082   .     S
C48    N49     1.362   1_645 A
C48    C0      1.470   1_655 S
N49    C48     1.362   1_465 A
N50    C51     1.360   .     A
C51    C52     1.406   .     A
C51    H55     1.082   .     S
C52    N53     1.362   1_465 A
C52    C2      1.470   1_455 S
N53    C52     1.362   1_645 A
