data_pcu+N505+E28
_audit_creation_date              2023-11-17
_audit_creation_method            'Materials Studio'
_symmetry_space_group_name_H-M    'P1'
_symmetry_Int_Tables_number       1
_symmetry_cell_setting            triclinic
loop_
_symmetry_equiv_pos_as_xyz
  x,y,z
_cell_length_a                    17.6181
_cell_length_b                    22.9099
_cell_length_c                    21.0064
_cell_angle_alpha                 83.5481
_cell_angle_beta                  20.1295
_cell_angle_gamma                 74.8435
loop_
_atom_site_label
_atom_site_type_symbol
_atom_site_fract_x
_atom_site_fract_y
_atom_site_fract_z
_atom_site_U_iso_or_equiv
_atom_site_adp_type
_atom_site_occupancy
Yb0    Yb    1.05299   0.08884  -0.10835   0.00000  Uiso   1.00
Yb1    Yb   -0.05383   0.91708   1.10914   0.00000  Uiso   1.00
C2     C    -0.03928   0.81007   1.08351   0.00000  Uiso   1.00
O3     O     0.23752   0.02075   0.68103   0.00000  Uiso   1.00
O4     O     0.91168   0.11590   0.90818   0.00000  Uiso   1.00
O5     O     0.82569   0.04062   0.09966   0.00000  Uiso   1.00
O6     O     0.73616   0.95806   1.18317   0.00000  Uiso   1.00
O7     O     1.20992   0.15385   0.75186   0.00000  Uiso   1.00
O8     O     0.86927   0.17980   0.07191   0.00000  Uiso   1.00
O9     O     0.76326   0.98496   0.31871   0.00000  Uiso   1.00
O10    O     0.08851   0.88964   0.09175   0.00000  Uiso   1.00
C11    C     1.08322   0.06173   0.75705   0.00000  Uiso   1.00
O12    O     0.26105   0.04823  -0.18062   0.00000  Uiso   1.00
O13    O     0.17221   0.96555   0.90216   0.00000  Uiso   1.00
O14    O    -0.21257   0.85238   0.25041   0.00000  Uiso   1.00
C15    C     0.75181   1.00362   0.13351   0.00000  Uiso   1.00
O16    O     0.12715   0.82631   0.93074   0.00000  Uiso   1.00
C17    C     1.03566   0.19616  -0.08067   0.00000  Uiso   1.00
C18    C    -0.08266   0.94375   0.24278   0.00000  Uiso   1.00
C19    C     0.24702   0.00235   0.86764   0.00000  Uiso   1.00
C20    C    -0.01906   0.62548   1.03622   0.00000  Uiso   1.00
C21    C     0.77894   0.67260   0.22416   0.00000  Uiso   1.00
C22    C     0.77339   0.73240   0.23915   0.00000  Uiso   1.00
C23    C    -0.03118   0.74642   1.06706   0.00000  Uiso   1.00
C24    C     0.17038   0.69953   0.87944   0.00000  Uiso   1.00
C25    C     0.17703   0.63962   0.86380   0.00000  Uiso   1.00
C26    C    -0.01247   0.56201   1.01975   0.00000  Uiso   1.00
N27    N     0.18949   0.51489   0.83667   0.00000  Uiso   1.00
N28    N     0.19766   0.45750   0.82052   0.00000  Uiso   1.00
C29    C     0.00368   0.44478   0.98717   0.00000  Uiso   1.00
N30    N    -0.19850   0.49192   0.17037   0.00000  Uiso   1.00
N31    N    -0.20665   0.54932   0.18653   0.00000  Uiso   1.00
C32    C     0.01198   0.38108   0.96944   0.00000  Uiso   1.00
C33    C     0.81844   0.36630   0.14038   0.00000  Uiso   1.00
C34    C     0.82622   0.30628   0.12384   0.00000  Uiso   1.00
C35    C     0.02715   0.25984   0.93615   0.00000  Uiso   1.00
C36    C     0.22053   0.27448   0.76510   0.00000  Uiso   1.00
C37    C     0.21356   0.33439   0.78131   0.00000  Uiso   1.00
H38    H     0.62484   0.66341   0.35998   0.00000  Uiso   1.00
H39    H     0.61450   0.76789   0.38628   0.00000  Uiso   1.00
H40    H     0.32340   0.70911   0.74433   0.00000  Uiso   1.00
H41    H     0.33510   0.60455   0.71696   0.00000  Uiso   1.00
H42    H     0.66051   0.40101   0.28754   0.00000  Uiso   1.00
H43    H     0.67476   0.29624   0.25818   0.00000  Uiso   1.00
H44    H     0.37780   0.23947   0.61859   0.00000  Uiso   1.00
H45    H     0.36611   0.34407   0.64623   0.00000  Uiso   1.00
C46    C     0.40380   0.00022  -0.05601   0.00000  Uiso   1.00
C47    C     0.26120   0.05954   0.01661   0.00000  Uiso   1.00
C48    C     0.20689   0.05913  -0.00495   0.00000  Uiso   1.00
C49    C     0.29469  -0.00043  -0.10060   0.00000  Uiso   1.00
C50    C     0.44593   0.94021   0.81884   0.00000  Uiso   1.00
C51    C     0.49555   0.94042   0.84495   0.00000  Uiso   1.00
C52    C     0.45505   0.00139  -0.02762   0.00000  Uiso   1.00
N53    N     0.55710   0.94485   0.93357   0.00000  Uiso   1.00
N54    N     0.59983   0.94639   0.96177   0.00000  Uiso   1.00
C55    C     0.54182   0.00445   0.03046   0.00000  Uiso   1.00
N56    N     0.43981   0.06100   0.06922   0.00000  Uiso   1.00
N57    N     0.39745   0.05945   0.04072   0.00000  Uiso   1.00
C58    C     0.59304   0.00564   0.05888   0.00000  Uiso   1.00
C59    C     0.50264   0.06545   0.15676   0.00000  Uiso   1.00
C60    C     0.55320   0.06567   0.18208   0.00000  Uiso   1.00
C61    C     0.70424   0.00633   0.10169   0.00000  Uiso   1.00
C62    C     0.79143   0.94674   1.00659   0.00000  Uiso   1.00
C63    C     0.73547   0.94633   0.98642   0.00000  Uiso   1.00
H64    H     0.18960   0.10648   0.09165   0.00000  Uiso   1.00
H65    H     0.09633   0.10573   0.05274   0.00000  Uiso   1.00
H66    H     0.52653   0.89400   0.73500   0.00000  Uiso   1.00
H67    H     0.60733   0.89393   0.78615   0.00000  Uiso   1.00
H68    H     0.38845   0.11195   0.21765   0.00000  Uiso   1.00
H69    H     0.47353   0.11189   0.26511   0.00000  Uiso   1.00
H70    H     0.90374   0.90014   0.94740   0.00000  Uiso   1.00
H71    H     0.80727   0.89938   0.91121   0.00000  Uiso   1.00
C72    C     0.93454  -0.01958   0.42438   0.00000  Uiso   1.00
C73    C     1.03868   0.91571   0.32651   0.00000  Uiso   1.00
C74    C     0.02605   0.90427   0.27317   0.00000  Uiso   1.00
C75    C     0.90758  -0.04284   0.31757   0.00000  Uiso   1.00
C76    C     0.79488   0.02188   0.42208   0.00000  Uiso   1.00
C77    C     0.80861   0.03348   0.47483   0.00000  Uiso   1.00
C78    C     0.96600  -0.00798   0.46613   0.00000  Uiso   1.00
N79    N     0.87978   0.05424   0.54955   0.00000  Uiso   1.00
N80    N     0.91366   0.06432   0.58248   0.00000  Uiso   1.00
C81    C     1.03445   0.01276   0.53399   0.00000  Uiso   1.00
N82    N     1.12020   0.95053   0.45098   0.00000  Uiso   1.00
N83    N     1.08604   0.94045   0.41828   0.00000  Uiso   1.00
C84    C     1.06482   0.02444   0.57664   0.00000  Uiso   1.00
C85    C     1.18912   0.97148   0.52766   0.00000  Uiso   1.00
C86    C     0.20526   0.98324   0.57833   0.00000  Uiso   1.00
C87    C     1.09311   0.04805   0.68223   0.00000  Uiso   1.00
C88    C     0.97479   0.10082   0.72643   0.00000  Uiso   1.00
C89    C     0.96169   0.08922   0.67353   0.00000  Uiso   1.00
H90    H     1.13574   0.87373   0.28627   0.00000  Uiso   1.00
H91    H     0.11361   0.85382   0.19330   0.00000  Uiso   1.00
H92    H     0.70083   0.06348   0.45925   0.00000  Uiso   1.00
H93    H     0.72472   0.08396   0.55158   0.00000  Uiso   1.00
H94    H     1.27186   0.92096   0.45197   0.00000  Uiso   1.00
H95    H     0.29805   0.94174   0.54230   0.00000  Uiso   1.00
H96    H     0.88860   0.15132   0.80505   0.00000  Uiso   1.00
H97    H     0.86671   0.13115   0.71194   0.00000  Uiso   1.00
loop_
_geom_bond_atom_site_label_1
_geom_bond_atom_site_label_2
_geom_bond_distance
_geom_bond_site_symmetry_2
_ccdc_geom_bond_type
Yb0    O5      2.173   .     S
Yb0    O8      2.095   .     S
Yb0    O3      2.114   1_654 S
Yb0    O4      2.079   1_554 S
Yb0    O7      2.100   1_554 S
Yb0    O12     2.166   1_655 S
Yb1    O13     2.170   .     S
Yb1    O16     2.093   .     S
Yb1    O6      2.167   1_455 S
Yb1    O9      2.112   1_456 S
Yb1    O10     2.080   1_556 S
Yb1    O14     2.102   1_556 S
C2     O16     1.291   .     A
C2     C23     1.476   .     S
C2     O14     1.292   1_556 A
O3     Yb0     2.114   1_456 S
O3     C11     1.293   1_455 A
O4     C11     1.288   .     A
O4     Yb0     2.079   1_556 S
O5     C15     1.273   1_545 A
O6     Yb1     2.167   1_655 S
O6     C15     1.273   1_556 A
O7     Yb0     2.100   1_556 S
O7     C17     1.292   1_556 A
O8     C17     1.291   .     A
O9     Yb1     2.112   1_654 S
O9     C18     1.293   1_655 A
O10    C18     1.288   .     A
O10    Yb1     2.080   1_554 S
C11    C87     1.472   .     S
C11    O3      1.293   1_655 A
O12    Yb0     2.166   1_455 S
O12    C19     1.273   1_554 A
O13    C19     1.274   1_565 A
O14    Yb1     2.102   1_554 S
O14    C2      1.292   1_554 A
C15    O5      1.273   1_565 A
C15    O6      1.273   1_554 A
C15    C61     1.473   1_565 S
C17    O7      1.292   1_554 A
C17    C35     1.476   1_654 S
C18    O9      1.293   1_455 A
C18    C75     1.472   1_465 S
C19    O12     1.273   1_556 A
C19    O13     1.274   1_545 A
C19    C49     1.473   1_556 S
C20    C25     1.408   .     A
C20    C26     1.482   .     S
C20    C21     1.408   1_456 A
C21    C22     1.398   .     A
C21    H38     1.083   .     S
C21    C20     1.408   1_654 A
C22    H39     1.085   .     S
C22    C23     1.404   1_654 A
C23    C24     1.405   .     A
C23    C22     1.404   1_456 A
C24    C25     1.397   .     A
C24    H40     1.083   .     S
C25    H41     1.082   .     S
C26    N27     1.358   .     A
C26    N31     1.359   1_556 A
N27    N28     1.332   .     A
N28    C29     1.358   .     A
C29    C32     1.482   .     S
C29    N30     1.359   1_556 A
N30    N31     1.332   .     A
N30    C29     1.359   1_554 A
N31    C26     1.359   1_554 A
C32    C37     1.408   .     A
C32    C33     1.405   1_456 A
C33    C34     1.396   .     A
C33    H42     1.083   .     S
C33    C32     1.405   1_654 A
C34    H43     1.082   .     S
C34    C35     1.404   1_654 A
C35    C36     1.403   .     A
C35    C34     1.404   1_456 A
C35    C17     1.476   1_456 S
C36    C37     1.398   .     A
C36    H44     1.082   .     S
C37    H45     1.083   .     S
C46    C47     1.403   .     A
C46    C52     1.483   .     S
C46    C51     1.409   1_544 A
C47    C48     1.393   .     A
C47    H64     1.082   .     S
C48    C49     1.403   .     A
C48    H65     1.083   .     S
C49    C50     1.403   1_544 A
C49    C19     1.473   1_554 S
C50    C51     1.403   .     A
C50    H66     1.084   .     S
C50    C49     1.403   1_566 A
C51    H67     1.081   .     S
C51    C46     1.409   1_566 A
C52    N57     1.359   .     A
C52    N53     1.357   1_544 A
N53    N54     1.332   .     A
N53    C52     1.357   1_566 A
N54    C55     1.359   1_566 A
C55    N56     1.358   .     A
C55    C58     1.483   .     S
C55    N54     1.359   1_544 A
N56    N57     1.332   .     A
C58    C59     1.409   .     A
C58    C63     1.403   1_544 A
C59    C60     1.403   .     A
C59    H68     1.082   .     S
C60    C61     1.403   .     A
C60    H69     1.084   .     S
C61    C62     1.403   1_544 A
C61    C15     1.473   1_545 S
C62    C63     1.393   .     A
C62    H70     1.084   .     S
C62    C61     1.403   1_566 A
C63    H71     1.082   .     S
C63    C58     1.403   1_566 A
C72    C77     1.410   .     A
C72    C78     1.480   .     S
C72    C73     1.404   1_545 A
C73    H90     1.083   .     S
C73    C72     1.404   1_565 A
C73    C74     1.392   1_655 A
C74    H91     1.083   .     S
C74    C73     1.392   1_455 A
C74    C75     1.404   1_465 A
C75    C76     1.402   .     A
C75    C74     1.404   1_645 A
C75    C18     1.472   1_645 S
C76    C77     1.400   .     A
C76    H92     1.084   .     S
C77    H93     1.083   .     S
C78    N79     1.357   .     A
C78    N83     1.359   1_545 A
N79    N80     1.331   .     A
N80    C81     1.359   .     A
C81    C84     1.480   .     S
C81    N82     1.357   1_545 A
N82    N83     1.331   .     A
N82    C81     1.357   1_565 A
N83    C78     1.359   1_565 A
C84    C89     1.404   .     A
C84    C85     1.409   1_545 A
C85    H94     1.082   .     S
C85    C84     1.409   1_565 A
C85    C86     1.400   1_655 A
C86    H95     1.084   .     S
C86    C85     1.400   1_455 A
C86    C87     1.403   1_465 A
C87    C88     1.403   .     A
C87    C86     1.403   1_645 A
C88    C89     1.392   .     A
C88    H96     1.083   .     S
C89    H97     1.083   .     S
