data_pcu+N123+E59
_audit_creation_date              2023-11-17
_audit_creation_method            'Materials Studio'
_symmetry_space_group_name_H-M    'P1'
_symmetry_Int_Tables_number       1
_symmetry_cell_setting            triclinic
loop_
_symmetry_equiv_pos_as_xyz
  x,y,z
_cell_length_a                    22.0471
_cell_length_b                    19.5736
_cell_length_c                    20.3086
_cell_angle_alpha                 118.9419
_cell_angle_beta                  103.1404
_cell_angle_gamma                 71.9667
loop_
_atom_site_label
_atom_site_type_symbol
_atom_site_fract_x
_atom_site_fract_y
_atom_site_fract_z
_atom_site_U_iso_or_equiv
_atom_site_adp_type
_atom_site_occupancy
Ce0    Ce    0.04586   0.95631   1.04131   0.00000  Uiso   1.00
Ce1    Ce    0.94566   0.05024  -0.03246   0.00000  Uiso   1.00
C2     C     0.99244   0.91581   0.84496   0.00000  Uiso   1.00
C3     C     0.17227   0.88767   1.02896   0.00000  Uiso   1.00
C4     C     0.90327   0.93204   0.01399   0.00000  Uiso   1.00
C5     C     0.00605   0.08821   0.16588   0.00000  Uiso   1.00
C6     C     0.81799   0.11253  -0.02842   0.00000  Uiso   1.00
C7     C     0.08816   0.07618   0.99726   0.00000  Uiso   1.00
O8     O     0.94747  -0.03037   0.83943   0.00000  Uiso   1.00
O9     O     0.01285   0.93122   0.91985   0.00000  Uiso   1.00
O10    O     0.13123   0.84771   1.01715   0.00000  Uiso   1.00
O11    O     0.14786   0.96102   0.04181   0.00000  Uiso   1.00
O12    O    -0.03909   0.91133   0.03990   0.00000  Uiso   1.00
O13    O     0.88605   0.97787  -0.01956   0.00000  Uiso   1.00
O14    O     0.05199   1.03299   0.16707   0.00000  Uiso   1.00
O15    O     0.97590   0.08004   0.09288   0.00000  Uiso   1.00
O16    O     0.85800   0.15521  -0.01334   0.00000  Uiso   1.00
O17    O     0.84392   0.03932   0.95912   0.00000  Uiso   1.00
O18    O     1.03012   0.09906   0.97379   0.00000  Uiso   1.00
O19    O     0.10633   0.02592   1.02616   0.00000  Uiso   1.00
C20    C     0.09498   0.32710   0.01903   0.00000  Uiso   1.00
C21    C     0.09168   0.45579   0.02592   0.00000  Uiso   1.00
H22    H     0.86809   0.59987   0.88368   0.00000  Uiso   1.00
C23    C     0.99408   0.40893   0.99222   0.00000  Uiso   1.00
C24    C     1.02862   0.33933   0.99901   0.00000  Uiso   1.00
N25    N     0.87773   0.83217   0.03550   0.00000  Uiso   1.00
N26    N     0.11180   0.17861   0.97755   0.00000  Uiso   1.00
O27    O     0.85297   0.74698   0.91125   0.00000  Uiso   1.00
O28    O     0.17905   0.25451   0.06994   0.00000  Uiso   1.00
H29    H     0.81226   0.89828   0.98026   0.00000  Uiso   1.00
H30    H     0.83180   0.95461   0.08086   0.00000  Uiso   1.00
H31    H     0.92923   0.47905   0.89624   0.00000  Uiso   1.00
H32    H    -0.01958   0.74065   0.07925   0.00000  Uiso   1.00
H33    H     0.03863   0.62116   0.09388   0.00000  Uiso   1.00
H34    H     0.89514   0.83839   0.08995   0.00000  Uiso   1.00
H35    H     0.17729   0.37839   0.04854   0.00000  Uiso   1.00
H36    H     0.17492   0.11761   0.03904   0.00000  Uiso   1.00
H37    H     0.16413   0.05856   0.93799   0.00000  Uiso   1.00
H38    H     0.11718   0.49910   0.03498   0.00000  Uiso   1.00
H39    H     1.00326   0.29570   0.98984   0.00000  Uiso   1.00
H40    H     0.94286   0.41738   0.97769   0.00000  Uiso   1.00
H41    H     0.07888   0.17425   0.93063   0.00000  Uiso   1.00
C42    C     0.90542   0.60524   0.92966   0.00000  Uiso   1.00
C43    C     0.88115   0.75366   0.97251   0.00000  Uiso   1.00
C44    C     0.85174   0.90583   0.02686   0.00000  Uiso   1.00
C45    C     0.98892   0.54067   0.99613   0.00000  Uiso   1.00
C46    C     0.91827   0.68046   0.98112   0.00000  Uiso   1.00
C47    C     0.94009   0.53610   0.93711   0.00000  Uiso   1.00
C48    C    -0.03247   0.68454   0.03953   0.00000  Uiso   1.00
C49    C     0.00202   0.61556   0.04715   0.00000  Uiso   1.00
C50    C     0.12613   0.38641   0.03339   0.00000  Uiso   1.00
C51    C     0.13151   0.25276   0.02502   0.00000  Uiso   1.00
C52    C     0.13916   0.10632  -0.01129   0.00000  Uiso   1.00
C53    C     0.02534   0.46763   0.00509   0.00000  Uiso   1.00
C54    C     0.62095   0.07944   0.01324   0.00000  Uiso   1.00
C55    C     0.53117   0.07238   0.06005   0.00000  Uiso   1.00
H56    H     0.42587   0.79152   0.89488   0.00000  Uiso   1.00
C57    C     0.55591   0.98240   0.93097   0.00000  Uiso   1.00
C58    C     0.60660   1.01698   0.94245   0.00000  Uiso   1.00
N59    N     0.27496   0.89845   1.01404   0.00000  Uiso   1.00
N60    N     0.71390   0.09342  -0.02745   0.00000  Uiso   1.00
O61    O     0.30581   0.80216   0.90035   0.00000  Uiso   1.00
O62    O     0.67346   0.18499   0.08233   0.00000  Uiso   1.00
H63    H     0.25483   0.78815   0.98555   0.00000  Uiso   1.00
H64    H     0.26311   0.85186   0.08217   0.00000  Uiso   1.00
H65    H     0.51415   0.85121   0.91214   0.00000  Uiso   1.00
H66    H     0.31020   0.02769   0.02154   0.00000  Uiso   1.00
H67    H     0.39830   0.08694   0.03818   0.00000  Uiso   1.00
H68    H     0.27811  -0.04543   0.05866   0.00000  Uiso   1.00
H69    H     0.59138   0.15440   0.12693   0.00000  Uiso   1.00
H70    H     0.73133   0.20722   0.00976   0.00000  Uiso   1.00
H71    H     0.73091   0.14609   0.91207   0.00000  Uiso   1.00
H72    H     0.50252   0.09464   0.10643   0.00000  Uiso   1.00
H73    H     0.63250   0.99572   0.89421   0.00000  Uiso   1.00
H74    H     0.54537   0.93598   0.87549   0.00000  Uiso   1.00
H75    H     0.71922   1.03489   0.92944   0.00000  Uiso   1.00
C76    C     0.41900   0.85623   0.92565   0.00000  Uiso   1.00
C77    C     0.31135   0.86596   0.95445   0.00000  Uiso   1.00
C78    C     0.24297   0.85172   1.02727   0.00000  Uiso   1.00
C79    C     0.46334   0.97383   0.97734   0.00000  Uiso   1.00
C80    C     0.36140   0.90445   0.95795   0.00000  Uiso   1.00
C81    C     0.46971   0.89044   0.93585   0.00000  Uiso   1.00
C82    C     0.35450  -0.01173  -0.00215   0.00000  Uiso   1.00
C83    C     0.40509   0.02240   0.00765   0.00000  Uiso   1.00
C84    C     0.58251   0.10631   0.07198   0.00000  Uiso   1.00
C85    C     0.67148   0.12198   0.02527   0.00000  Uiso   1.00
C86    C     0.74669   0.14466  -0.03296   0.00000  Uiso   1.00
C87    C     0.51743   0.01005  -0.01045   0.00000  Uiso   1.00
C88    C     0.02100   0.88894   0.60884   0.00000  Uiso   1.00
C89    C     0.97703   0.91703   0.50079   0.00000  Uiso   1.00
H90    H    -0.01249   0.21461   0.51599   0.00000  Uiso   1.00
C91    C     0.05279  -0.01049   0.59471   0.00000  Uiso   1.00
C92    C     0.05741  -0.05340   0.63483   0.00000  Uiso   1.00
N93    N    -0.03167   0.12645   0.28439   0.00000  Uiso   1.00
N94    N     1.03960   0.87826   0.73233   0.00000  Uiso   1.00
O95    O     0.99996   0.22472   0.39790   0.00000  Uiso   1.00
O96    O     0.01103   0.77827   0.61816   0.00000  Uiso   1.00
H97    H    -0.06623   0.19055   0.22036   0.00000  Uiso   1.00
H98    H     0.01353   1.19778   0.26735   0.00000  Uiso   1.00
H99    H    -0.00227   0.13741   0.58535   0.00000  Uiso   1.00
H100   H     1.00584   0.99494   0.30715   0.00000  Uiso   1.00
H101   H     1.01493   0.91906   0.37645   0.00000  Uiso   1.00
H102   H    -0.05697   1.08130   0.25969   0.00000  Uiso   1.00
H103   H     0.95278   0.82973   0.51885   0.00000  Uiso   1.00
H104   H     1.07330   0.82152   0.80303   0.00000  Uiso   1.00
H105   H     0.99837  -0.19870   0.74663   0.00000  Uiso   1.00
H106   H     0.94480   0.90604   0.44963   0.00000  Uiso   1.00
H107   H     0.09077  -0.04261   0.68485   0.00000  Uiso   1.00
H108   H     0.08166   0.03301   0.61567   0.00000  Uiso   1.00
H109   H     1.05621  -0.06900   0.76051   0.00000  Uiso   1.00
C110   C    -0.00636   0.15003   0.48495   0.00000  Uiso   1.00
C111   C     0.98869   0.15798   0.36404   0.00000  Uiso   1.00
C112   C    -0.01998   0.15713   0.23675   0.00000  Uiso   1.00
C113   C     1.00639   0.02246   0.48595   0.00000  Uiso   1.00
C114   C     0.99495   0.11111   0.40591   0.00000  Uiso   1.00
C115   C    -0.00052   0.10614   0.52464   0.00000  Uiso   1.00
C116   C     1.00288   1.02731   0.36768   0.00000  Uiso   1.00
C117   C     1.00826   0.98366   0.40732   0.00000  Uiso   1.00
C118   C     0.98130   0.87395   0.54075   0.00000  Uiso   1.00
C119   C     0.02350   0.84447   0.65184   0.00000  Uiso   1.00
C120   C     1.02689   0.84736   0.77949   0.00000  Uiso   1.00
C121   C     0.01220   0.97583   0.52779   0.00000  Uiso   1.00
loop_
_geom_bond_atom_site_label_1
_geom_bond_atom_site_label_2
_geom_bond_distance
_geom_bond_site_symmetry_2
_ccdc_geom_bond_type
Ce0    O9      2.256   .     S
Ce0    O10     2.288   .     S
Ce0    O11     2.277   1_556 S
Ce0    O12     2.293   1_556 S
Ce0    O14     2.248   1_556 S
Ce0    O15     2.304   1_466 S
Ce0    O19     2.333   1_565 S
Ce1    O15     2.301   .     S
Ce1    O16     2.284   .     S
Ce1    O8      2.301   1_554 S
Ce1    O9      2.212   1_644 S
Ce1    O13     2.339   1_545 S
Ce1    O17     2.279   1_554 S
Ce1    O18     2.296   1_554 S
C2     C120    1.498   .     S
C2     O8      1.234   1_565 D
C2     O9      1.391   1_655 S
C3     O10     1.283   .     A
C3     C78     1.499   .     S
C3     O11     1.281   1_556 A
C4     O13     1.295   .     A
C4     C44     1.499   .     S
C4     O12     1.281   1_655 A
C5     C112    1.496   .     S
C5     O14     1.237   1_545 D
C5     O15     1.433   1_455 S
C6     O16     1.287   .     A
C6     C86     1.501   .     S
C6     O17     1.285   1_554 A
C7     O19     1.297   .     A
C7     O18     1.280   1_455 A
C7     C52     1.497   1_556 S
O8     Ce1     2.301   1_556 S
O8     C2      1.234   1_545 D
O9     Ce1     2.212   1_466 S
O9     C2      1.391   1_455 S
O11    Ce0     2.277   1_554 S
O11    C3      1.281   1_554 A
O12    Ce0     2.293   1_554 S
O12    C4      1.281   1_455 A
O13    Ce1     2.339   1_565 S
O14    Ce0     2.248   1_554 S
O14    C5      1.237   1_565 D
O15    Ce0     2.304   1_644 S
O15    C5      1.433   1_655 S
O17    Ce1     2.279   1_556 S
O17    C6      1.285   1_556 A
O18    Ce1     2.296   1_556 S
O18    C7      1.280   1_655 A
O19    Ce0     2.333   1_545 S
C20    C50     1.407   .     A
C20    C51     1.477   .     S
C20    C24     1.404   1_454 A
C21    H38     1.080   .     S
C21    C50     1.397   .     A
C21    C53     1.405   .     A
H22    C42     1.081   .     S
C23    C24     1.395   .     A
C23    H40     1.082   .     S
C23    C53     1.408   1_656 A
C24    H39     1.082   .     S
C24    C20     1.404   1_656 A
N25    H34     1.044   .     S
N25    C44     1.458   .     S
N25    C43     1.440   1_554 S
N26    H41     1.043   .     S
N26    C51     1.439   1_556 S
N26    C52     1.462   1_556 S
O27    C43     1.222   .     D
O28    C51     1.220   .     D
H29    C44     1.116   1_556 S
H30    C44     1.120   .     S
H31    C47     1.082   .     S
H32    C48     1.081   .     S
H33    C49     1.082   .     S
H35    C50     1.082   .     S
H36    C52     1.113   .     S
H37    C52     1.116   1_556 S
C42    C46     1.405   .     A
C42    C47     1.394   .     A
C43    C46     1.485   .     S
C43    N25     1.440   1_556 S
C44    H29     1.116   1_554 S
C45    C47     1.405   .     A
C45    C49     1.401   1_656 A
C45    C53     1.482   1_656 S
C46    C48     1.403   1_656 A
C48    C49     1.392   .     A
C48    C46     1.403   1_454 A
C49    C45     1.401   1_454 A
C51    N26     1.439   1_554 S
C52    N26     1.462   1_554 S
C52    H37     1.116   1_554 S
C52    C7      1.497   1_554 S
C53    C23     1.408   1_454 A
C53    C45     1.482   1_454 S
C54    C84     1.412   .     A
C54    C85     1.499   .     S
C54    C58     1.412   1_544 A
C55    H72     1.086   .     S
C55    C84     1.402   .     A
C55    C87     1.404   .     A
H56    C76     1.084   .     S
C57    C58     1.400   .     A
C57    H74     1.081   .     S
C57    C87     1.407   1_566 A
C58    H73     1.082   .     S
C58    C54     1.412   1_566 A
N59    C77     1.376   .     S
N59    C78     1.459   .     S
N59    H68     1.043   1_566 S
N60    C85     1.373   .     S
N60    C86     1.461   .     S
N60    H75     1.042   1_544 S
O61    C77     1.219   .     D
O62    C85     1.222   .     D
H63    C78     1.102   .     S
H64    C78     1.101   1_554 S
H65    C81     1.083   .     S
H66    C82     1.081   .     S
H67    C83     1.082   .     S
H68    N59     1.043   1_544 S
H69    C84     1.081   .     S
H70    C86     1.103   .     S
H71    C86     1.103   1_556 S
H75    N60     1.042   1_566 S
C76    C80     1.404   .     A
C76    C81     1.402   .     A
C77    C80     1.489   .     S
C78    H64     1.101   1_556 S
C79    C81     1.405   .     A
C79    C83     1.403   1_566 A
C79    C87     1.485   1_566 S
C80    C82     1.409   1_566 A
C82    C83     1.401   .     A
C82    C80     1.409   1_544 A
C83    C79     1.403   1_544 A
C86    H71     1.103   1_554 S
C87    C57     1.407   1_544 A
C87    C79     1.485   1_544 S
C88    C119    1.486   .     S
C88    C92     1.410   1_565 A
C88    C118    1.407   1_455 A
C89    H106    1.083   .     S
C89    C118    1.399   .     A
C89    C121    1.405   1_655 A
H90    C110    1.084   .     S
C91    C92     1.397   .     A
C91    H108    1.083   .     S
C91    C121    1.401   1_545 A
C92    H107    1.080   .     S
C92    C88     1.410   1_545 A
N93    C112    1.461   .     S
N93    H102    1.045   1_545 S
N93    C111    1.440   1_455 S
N94    C120    1.466   .     S
N94    H109    1.046   1_565 S
N94    C119    1.439   1_655 S
O95    C111    1.223   .     D
O96    C119    1.225   .     D
H97    C112    1.105   .     S
H98    C112    1.114   1_565 S
H99    C115    1.083   .     S
H100   C116    1.084   .     S
H101   C117    1.083   .     S
H102   N93     1.045   1_565 S
H103   C118    1.086   .     S
H104   C120    1.106   .     S
H105   C120    1.110   1_545 S
H109   N94     1.046   1_545 S
C110   C115    1.400   .     A
C110   C114    1.408   1_455 D
C111   C114    1.485   .     S
C111   N93     1.440   1_655 S
C112   H98     1.114   1_545 S
C113   C115    1.406   1_655 A
C113   C117    1.402   1_545 A
C113   C121    1.483   1_645 S
C114   C110    1.408   1_655 D
C114   C116    1.405   1_545 S
C115   C113    1.406   1_455 A
C116   C117    1.397   .     A
C116   C114    1.405   1_565 S
C117   C113    1.402   1_565 A
C118   C88     1.407   1_655 A
C119   N94     1.439   1_455 S
C120   H105    1.110   1_565 S
C121   C89     1.405   1_455 A
C121   C91     1.401   1_565 A
C121   C113    1.483   1_465 S
