data_pcu+N173+E35
_audit_creation_date              2023-11-17
_audit_creation_method            'Materials Studio'
_symmetry_space_group_name_H-M    'P1'
_symmetry_Int_Tables_number       1
_symmetry_cell_setting            triclinic
loop_
_symmetry_equiv_pos_as_xyz
  x,y,z
_cell_length_a                    14.7252
_cell_length_b                    18.9145
_cell_length_c                    14.7114
_cell_angle_alpha                 106.1314
_cell_angle_beta                  97.2171
_cell_angle_gamma                 60.0298
loop_
_atom_site_label
_atom_site_type_symbol
_atom_site_fract_x
_atom_site_fract_y
_atom_site_fract_z
_atom_site_U_iso_or_equiv
_atom_site_adp_type
_atom_site_occupancy
Gd0    Gd    0.05521   0.86648   0.94751   0.00000  Uiso   1.00
Gd1    Gd    0.93407   0.14201   0.06321   0.00000  Uiso   1.00
O2     O     0.79745   0.11908   0.02998   0.00000  Uiso   1.00
O3     O     0.89703   0.98279   0.98502   0.00000  Uiso   1.00
O4     O     0.94791   0.97316   0.88065   0.00000  Uiso   1.00
O5     O    -0.00796   0.07332   0.91112   0.00000  Uiso   1.00
O6     O     0.13033   0.74440   0.98810   0.00000  Uiso   1.00
O7     O     0.96614   0.80344   0.95443   0.00000  Uiso   1.00
O8     O     0.18458   0.89654   0.94488   0.00000  Uiso   1.00
C9     C     0.04455   0.74131   0.97980   0.00000  Uiso   1.00
O10    O     0.08848   0.03180   0.00570   0.00000  Uiso   1.00
O11    O     0.04675   0.91798   0.10587   0.00000  Uiso   1.00
C12    C     0.97812   0.01572   0.85230   0.00000  Uiso   1.00
O13    O     0.98346   0.05965   0.16412   0.00000  Uiso   1.00
O14    O     0.90127   0.24019   0.99177   0.00000  Uiso   1.00
O15    O     0.02931   0.20718   0.08941   0.00000  Uiso   1.00
C16    C     0.80556   0.04664   0.00540   0.00000  Uiso   1.00
C17    C     0.97369   0.25479   0.03411   0.00000  Uiso   1.00
C18    C     0.01964   0.98493   0.17298   0.00000  Uiso   1.00
C19    C     0.17599   0.96935   0.97315   0.00000  Uiso   1.00
C20    C     0.01067   0.53840   1.01228   0.00000  Uiso   1.00
C21    C     0.92237   0.61799   0.01749   0.00000  Uiso   1.00
C22    C     0.93461   0.68408   0.00868   0.00000  Uiso   1.00
C23    C     0.03452   0.67213   0.99657   0.00000  Uiso   1.00
C24    C     0.12154   0.59308   0.99662   0.00000  Uiso   1.00
N25    N     0.10758   0.52878   1.00365   0.00000  Uiso   1.00
C26    C     0.00054   0.46482   1.01504   0.00000  Uiso   1.00
N27    N     0.08395   0.39800   1.04206   0.00000  Uiso   1.00
C28    C     0.07881   0.32917   1.04721   0.00000  Uiso   1.00
C29    C    -0.01406   0.32492   1.02333   0.00000  Uiso   1.00
C30    C     0.90054   0.39168  -0.00756   0.00000  Uiso   1.00
C31    C     0.90727   0.46151  -0.01177   0.00000  Uiso   1.00
H32    H     0.86540   0.74476   0.01106   0.00000  Uiso   1.00
H33    H     0.19997   0.58179   0.98832   0.00000  Uiso   1.00
H34    H     0.14684   0.27829   1.07017   0.00000  Uiso   1.00
H35    H     0.82732   0.39093  -0.02670   0.00000  Uiso   1.00
H36    H     0.84427   0.62989   0.02863   0.00000  Uiso   1.00
H37    H     0.83998   0.51165  -0.03658   0.00000  Uiso   1.00
C38    C     0.43696   0.00910   0.97292   0.00000  Uiso   1.00
C39    C     0.33498   0.07413  -0.03454   0.00000  Uiso   1.00
C40    C     0.25026   0.06024  -0.03651   0.00000  Uiso   1.00
C41    C     0.26645  -0.01800   0.96893   0.00000  Uiso   1.00
C42    C     0.36975   0.91746   0.97233   0.00000  Uiso   1.00
N43    N     0.45124   0.93256   0.97460   0.00000  Uiso   1.00
C44    C     0.52940   0.02148   0.97958   0.00000  Uiso   1.00
N45    N     0.62453   0.95399   0.94759   0.00000  Uiso   1.00
C46    C     0.71333   0.96030   0.95391   0.00000  Uiso   1.00
C47    C     0.70993   0.03789   0.99608   0.00000  Uiso   1.00
C48    C     0.61254   0.10825   0.02959   0.00000  Uiso   1.00
C49    C     0.52235   0.10042   0.02148   0.00000  Uiso   1.00
H50    H     0.17219   0.11037  -0.04327   0.00000  Uiso   1.00
H51    H     0.38563   0.85590   0.97551   0.00000  Uiso   1.00
H52    H     0.78572   0.90506   0.92511   0.00000  Uiso   1.00
H53    H     0.60603   0.16949   0.06288   0.00000  Uiso   1.00
H54    H     0.32067   0.13471  -0.03986   0.00000  Uiso   1.00
H55    H     0.44870   0.15516   0.04992   0.00000  Uiso   1.00
C56    C     1.02682  -0.02746   0.45798   0.00000  Uiso   1.00
C57    C     0.12102   0.92647   0.40516   0.00000  Uiso   1.00
C58    C     0.11933   0.92793   0.31031   0.00000  Uiso   1.00
C59    C     1.02450  -0.02302   0.27002   0.00000  Uiso   1.00
C60    C     0.93229   0.02111   0.32474   0.00000  Uiso   1.00
N61    N     0.93557   0.01732   0.41587   0.00000  Uiso   1.00
C62    C     1.02287  -0.02473   0.55856   0.00000  Uiso   1.00
N63    N     0.93608  -0.01809   0.59215   0.00000  Uiso   1.00
C64    C     0.92207  -0.00798   0.68524   0.00000  Uiso   1.00
C65    C     0.99643  -0.00087   0.75089   0.00000  Uiso   1.00
C66    C     0.08637   0.99291   0.71844   0.00000  Uiso   1.00
C67    C     0.10089   0.97948   0.62187   0.00000  Uiso   1.00
H68    H     0.19188   0.89292   0.26948   0.00000  Uiso   1.00
H69    H     0.85777   0.05885   0.29512   0.00000  Uiso   1.00
H70    H     0.85127  -0.00258   0.70836   0.00000  Uiso   1.00
H71    H     0.14516   0.99832   0.76777   0.00000  Uiso   1.00
H72    H     0.19460   0.88956   0.43672   0.00000  Uiso   1.00
H73    H     0.16974   0.97617   0.59754   0.00000  Uiso   1.00
loop_
_geom_bond_atom_site_label_1
_geom_bond_atom_site_label_2
_geom_bond_distance
_geom_bond_site_symmetry_2
_ccdc_geom_bond_type
Gd0    O6      2.227   .     S
Gd0    O8      2.251   .     S
Gd0    O3      2.258   1_455 S
Gd0    O4      2.250   1_455 S
Gd0    O7      2.195   1_455 S
Gd0    O11     2.254   1_556 S
Gd1    O2      2.232   .     S
Gd1    O13     2.245   .     S
Gd1    O5      2.276   1_654 S
Gd1    O10     2.236   1_655 S
Gd1    O14     2.202   1_554 S
Gd1    O15     2.228   1_655 S
O2     C16     1.263   .     A
O3     Gd0     2.258   1_655 S
O3     C16     1.280   1_566 A
O4     Gd0     2.250   1_655 S
O4     C12     1.269   1_565 A
O5     Gd1     2.276   1_456 S
O5     C12     1.278   1_455 A
O6     C9      1.282   .     A
O7     Gd0     2.195   1_655 S
O7     C9      1.278   1_655 A
O8     C19     1.267   .     A
C9     C23     1.475   .     S
C9     O7      1.278   1_455 A
O10    Gd1     2.236   1_455 S
O10    C19     1.267   1_544 A
O11    C18     1.279   .     A
O11    Gd0     2.254   1_554 S
C12    C65     1.467   .     S
C12    O4      1.269   1_545 A
C12    O5      1.278   1_655 A
O13    C18     1.277   1_645 A
O14    Gd1     2.202   1_556 S
O14    C17     1.278   1_556 A
O15    Gd1     2.228   1_455 S
O15    C17     1.283   1_455 A
C16    O3      1.280   1_544 A
C16    C47     1.484   1_554 S
C17    O14     1.278   1_554 A
C17    O15     1.283   1_655 A
C17    C29     1.477   1_654 S
C18    O13     1.277   1_465 A
C18    C59     1.466   1_465 S
C19    O10     1.267   1_566 A
C19    C41     1.477   1_565 S
C20    N25     1.363   .     A
C20    C26     1.484   .     S
C20    C21     1.403   1_456 A
C21    C22     1.390   .     A
C21    H36     1.081   .     S
C21    C20     1.403   1_654 A
C22    H32     1.084   .     S
C22    C23     1.399   1_654 A
C23    C24     1.401   .     A
C23    C22     1.399   1_456 A
C24    N25     1.363   .     A
C24    H33     1.081   .     S
C26    N27     1.367   .     A
C26    C31     1.408   1_456 A
N27    C28     1.364   .     A
C28    C29     1.405   .     A
C28    H34     1.084   .     S
C29    C30     1.404   1_456 A
C29    C17     1.477   1_456 S
C30    C31     1.391   .     A
C30    H35     1.086   .     S
C30    C29     1.404   1_654 A
C31    H37     1.085   .     S
C31    C26     1.408   1_654 A
C38    C44     1.480   .     S
C38    C39     1.403   1_556 A
C38    N43     1.362   1_545 A
C39    C40     1.393   .     A
C39    H54     1.081   .     S
C39    C38     1.403   1_554 A
C40    H50     1.079   .     S
C40    C41     1.401   1_554 A
C41    C40     1.401   1_556 A
C41    C42     1.402   1_545 A
C41    C19     1.477   1_545 S
C42    N43     1.360   .     A
C42    H51     1.081   .     S
C42    C41     1.402   1_565 A
N43    C38     1.362   1_565 A
C44    N45     1.363   1_545 A
C44    C49     1.404   1_556 A
N45    C46     1.361   .     A
N45    C44     1.363   1_565 A
C46    H52     1.078   .     S
C46    C47     1.403   1_565 A
C47    C46     1.403   1_545 A
C47    C48     1.406   1_556 A
C47    C16     1.484   1_556 S
C48    C49     1.395   .     A
C48    H53     1.085   .     S
C48    C47     1.406   1_554 A
C49    H55     1.084   .     S
C49    C44     1.404   1_554 A
C56    N61     1.361   .     A
C56    C62     1.474   .     S
C56    C57     1.405   1_645 A
C57    C58     1.400   .     A
C57    H72     1.084   .     S
C57    C56     1.405   1_465 A
C58    H68     1.083   .     S
C58    C59     1.402   1_465 A
C59    C60     1.399   .     A
C59    C58     1.402   1_645 A
C59    C18     1.466   1_645 S
C60    N61     1.356   .     A
C60    H69     1.083   .     S
C62    N63     1.363   .     A
C62    C67     1.405   1_645 A
N63    C64     1.357   .     A
C64    C65     1.400   .     A
C64    H70     1.085   .     S
C65    C66     1.403   1_645 A
C66    C67     1.397   .     A
C66    H71     1.084   .     S
C66    C65     1.403   1_465 A
C67    H73     1.084   .     S
C67    C62     1.405   1_465 A
