data_pcu+N144+E15
_audit_creation_date              2023-11-17
_audit_creation_method            'Materials Studio'
_symmetry_space_group_name_H-M    'P1'
_symmetry_Int_Tables_number       1
_symmetry_cell_setting            triclinic
loop_
_symmetry_equiv_pos_as_xyz
  x,y,z
_cell_length_a                    12.3975
_cell_length_b                    10.6588
_cell_length_c                    10.6844
_cell_angle_alpha                 89.8455
_cell_angle_beta                  96.7966
_cell_angle_gamma                 86.8164
loop_
_atom_site_label
_atom_site_type_symbol
_atom_site_fract_x
_atom_site_fract_y
_atom_site_fract_z
_atom_site_U_iso_or_equiv
_atom_site_adp_type
_atom_site_occupancy
C0     C     0.31949   0.02986   0.11680   0.00000  Uiso   1.00
Er1    Er    0.90355   0.98297   0.97439   0.00000  Uiso   1.00
Er2    Er    0.08860   0.97260  -0.00002   0.00000  Uiso   1.00
C3     C     0.00622   0.96457   0.25237   0.00000  Uiso   1.00
O4     O     0.08595   0.17348   0.00438   0.00000  Uiso   1.00
C5     C    -0.00048   0.71491  -0.02301   0.00000  Uiso   1.00
C6     C     1.00469   0.97184   0.72623   0.00000  Uiso   1.00
C7     C     0.71594  -0.00003   1.06621   0.00000  Uiso   1.00
O8     O     0.26480   0.09046   0.18508   0.00000  Uiso   1.00
O9     O     0.26976  -0.03927   1.01784   0.00000  Uiso   1.00
O10    O     0.09074   0.97924   0.80101   0.00000  Uiso   1.00
O11    O     0.91296   0.97623   0.76904   0.00000  Uiso   1.00
O12    O     0.08707   0.77223  -0.01113   0.00000  Uiso   1.00
O13    O     0.90795   0.77610   0.97722   0.00000  Uiso   1.00
C14    C     0.99814   0.24048  -0.01928   0.00000  Uiso   1.00
O15    O     0.90674   0.18942  -0.03123   0.00000  Uiso   1.00
O16    O     0.09204   0.95890   0.19963   0.00000  Uiso   1.00
O17    O     0.91361   0.98249   0.18524   0.00000  Uiso   1.00
O18    O     0.72541  -0.00723   0.95001   0.00000  Uiso   1.00
O19    O     0.80760  -0.00380   0.13419   0.00000  Uiso   1.00
N20    N     0.09648   0.40875  -0.09967   0.00000  Uiso   1.00
N21    N     0.09693   0.53179  -0.10064   0.00000  Uiso   1.00
C22    C     0.01075   0.57951  -0.04740   0.00000  Uiso   1.00
C23    C     0.95035   0.48107  -0.01222   0.00000  Uiso   1.00
C24    C     0.00992   0.37385  -0.04600   0.00000  Uiso   1.00
H25    H     0.87987   0.48631   0.03874   0.00000  Uiso   1.00
H26    H     0.15675   0.34950  -0.13260   0.00000  Uiso   1.00
H27    H     0.15762   0.58201  -0.13454   0.00000  Uiso   1.00
N28    N     0.60010   0.05192   0.23555   0.00000  Uiso   1.00
N29    N     0.49527   0.06210   0.24841   0.00000  Uiso   1.00
C30    C     0.43852   0.02932   1.13913   0.00000  Uiso   1.00
C31    C     0.50993  -0.00232   1.05254   0.00000  Uiso   1.00
C32    C     0.61150   0.01393   1.11751   0.00000  Uiso   1.00
H33    H     0.49070  -0.03061   0.95559   0.00000  Uiso   1.00
H34    H     0.66229   0.07303   0.30578   0.00000  Uiso   1.00
H35    H     0.46360   0.09105   0.33065   0.00000  Uiso   1.00
N36    N     0.11100   0.88303   0.56714   0.00000  Uiso   1.00
N37    N     0.11141   0.88082   0.44451   0.00000  Uiso   1.00
C38    C     0.02001   0.94144   0.38915   0.00000  Uiso   1.00
C39    C     0.95629   0.98316   0.48205   0.00000  Uiso   1.00
C40    C     0.01932   0.94501   0.59432   0.00000  Uiso   1.00
H41    H     0.88057   1.03982   0.47027   0.00000  Uiso   1.00
H42    H     0.17444   0.84464   0.63139   0.00000  Uiso   1.00
H43    H     0.17532   0.84061   0.39985   0.00000  Uiso   1.00
loop_
_geom_bond_atom_site_label_1
_geom_bond_atom_site_label_2
_geom_bond_distance
_geom_bond_site_symmetry_2
_ccdc_geom_bond_type
C0     O8      1.217   .     D
C0     O9      1.393   1_554 S
C0     C30     1.466   1_554 S
Er1    O11     2.212   .     S
Er1    O13     2.203   .     S
Er1    O15     2.204   1_566 S
Er1    O17     2.241   1_556 S
Er1    O18     2.190   1_565 S
Er1    O19     2.194   1_566 S
Er2    O12     2.140   .     S
Er2    O16     2.133   .     S
Er2    O4      2.140   1_565 S
Er2    O9      2.228   1_564 S
Er2    O10     2.130   1_554 S
C3     O16     1.260   .     A
C3     C38     1.470   .     S
C3     O17     1.284   1_455 A
O4     Er2     2.140   1_545 S
O4     C14     1.267   1_455 A
C5     O12     1.268   .     A
C5     C22     1.469   .     S
C5     O13     1.278   1_454 A
C6     O11     1.274   .     A
C6     O10     1.261   1_655 A
C6     C40     1.469   1_655 S
C7     O18     1.263   .     A
C7     C32     1.465   .     S
C7     O19     1.273   1_556 A
O9     C0      1.393   1_556 S
O9     Er2     2.228   1_546 S
O10    Er2     2.130   1_556 S
O10    C6      1.261   1_455 A
O13    C5      1.278   1_656 A
C14    O15     1.277   .     A
C14    O4      1.267   1_655 A
C14    C24     1.468   1_655 S
O15    Er1     2.204   1_544 S
O17    Er1     2.241   1_554 S
O17    C3      1.284   1_655 A
O18    Er1     2.190   1_545 S
O19    Er1     2.194   1_544 S
O19    C7      1.273   1_554 A
N20    N21     1.312   .     A
N20    C24     1.344   .     A
N20    H26     1.045   .     S
N21    C22     1.345   .     A
N21    H27     1.045   .     S
C22    C23     1.398   1_455 A
C23    H25     1.082   .     S
C23    C22     1.398   1_655 A
C23    C24     1.398   1_655 A
C24    C23     1.398   1_455 A
C24    C14     1.468   1_455 S
N28    N29     1.321   .     A
N28    H34     1.045   .     S
N28    C32     1.347   1_554 A
N29    H35     1.045   .     S
N29    C30     1.347   1_554 A
C30    C31     1.384   .     A
C30    N29     1.347   1_556 A
C30    C0      1.466   1_556 S
C31    C32     1.384   .     A
C31    H33     1.083   .     S
C32    N28     1.347   1_556 A
N36    N37     1.311   .     A
N36    C40     1.345   .     A
N36    H42     1.045   .     S
N37    C38     1.345   .     A
N37    H43     1.045   .     S
C38    C39     1.399   1_455 A
C39    H41     1.082   .     S
C39    C38     1.399   1_655 A
C39    C40     1.398   1_655 A
C40    C39     1.398   1_455 A
C40    C6      1.469   1_455 S
