data_pcu+N394+E70
_audit_creation_date              2023-11-17
_audit_creation_method            'Materials Studio'
_symmetry_space_group_name_H-M    'P1'
_symmetry_Int_Tables_number       1
_symmetry_cell_setting            triclinic
loop_
_symmetry_equiv_pos_as_xyz
  x,y,z
_cell_length_a                    13.3351
_cell_length_b                    10.6557
_cell_length_c                    9.3785
_cell_angle_alpha                 73.4012
_cell_angle_beta                  101.9416
_cell_angle_gamma                 88.7510
loop_
_atom_site_label
_atom_site_type_symbol
_atom_site_fract_x
_atom_site_fract_y
_atom_site_fract_z
_atom_site_U_iso_or_equiv
_atom_site_adp_type
_atom_site_occupancy
Pr0    Pr    0.11510   0.97517   0.01150   0.00000  Uiso   1.00
Pr1    Pr    0.87683  -0.00964   0.98472   0.00000  Uiso   1.00
O2     O     0.89621   0.20881   0.96169   0.00000  Uiso   1.00
O3     O     0.07249   0.20312  -0.02149   0.00000  Uiso   1.00
O4     O     0.27199   0.00718   0.94642   0.00000  Uiso   1.00
O5     O     0.26612   0.89777   0.17523   0.00000  Uiso   1.00
O6     O     1.01635   0.93789   0.18425   0.00000  Uiso   1.00
O7     O     0.11483   1.09903   0.17238   0.00000  Uiso   1.00
C8     C     0.93279   0.03877   0.70505   0.00000  Uiso   1.00
C9     C     0.98115   0.26604  -0.04660   0.00000  Uiso   1.00
C10    C     0.32199  -0.05573   1.08128   0.00000  Uiso   1.00
C11    C     0.69266   0.95786   0.06967   0.00000  Uiso   1.00
C12    C    -0.00800   0.72632   0.96174   0.00000  Uiso   1.00
C13    C     0.05171   1.04122   0.23877   0.00000  Uiso   1.00
O14    O     0.07948   0.77758  -0.03432   0.00000  Uiso   1.00
O15    O     0.91098   0.77746   0.98735   0.00000  Uiso   1.00
O16    O     0.77946   0.93059   0.15991   0.00000  Uiso   1.00
O17    O     0.69757   0.00487   0.93112   0.00000  Uiso   1.00
O18    O    -0.01962   0.07530   0.82634   0.00000  Uiso   1.00
O19    O     0.85460  -0.00884   0.72785   0.00000  Uiso   1.00
N20    N     0.00934   0.48836  -0.01837   0.00000  Uiso   1.00
H21    H     0.87798   0.72319   0.68406   0.00000  Uiso   1.00
C22    C     0.97657   0.61392   0.90197   0.00000  Uiso   1.00
C23    C     0.91328   0.62922   0.76122   0.00000  Uiso   1.00
C24    C     0.97003   0.40943   0.89785   0.00000  Uiso   1.00
S25    S     0.89194   0.48513   0.72263   0.00000  Uiso   1.00
N26    N     0.50187  -0.03585   1.04231   0.00000  Uiso   1.00
H27    H     0.43904   0.82852   0.37236   0.00000  Uiso   1.00
C28    C     0.43474   0.92552   0.13241   0.00000  Uiso   1.00
C29    C     0.48072   0.86555   0.28354   0.00000  Uiso   1.00
C30    C     0.59886   0.93237   0.12823   0.00000  Uiso   1.00
S31    S     0.61051   0.85576   0.31920   0.00000  Uiso   1.00
N32    N    -0.02449   1.01581   0.46669   0.00000  Uiso   1.00
H33    H     1.05977   0.28875   0.27548   0.00000  Uiso   1.00
C34    C     1.01477   0.08959   0.35218   0.00000  Uiso   1.00
C35    C     1.02749   0.21652   0.35650   0.00000  Uiso   1.00
C36    C     0.95929   0.08969   0.55683   0.00000  Uiso   1.00
S37    S     0.99160   0.24847   0.50580   0.00000  Uiso   1.00
loop_
_geom_bond_atom_site_label_1
_geom_bond_atom_site_label_2
_geom_bond_distance
_geom_bond_site_symmetry_2
_ccdc_geom_bond_type
Pr0    O5      2.240   .     S
Pr0    O7      2.271   .     S
Pr0    O14     2.306   .     S
Pr0    O3      2.399   1_565 S
Pr0    O4      2.304   1_564 S
Pr0    O6      2.248   1_455 S
Pr0    O18     2.224   1_564 S
Pr1    O2      2.301   .     S
Pr1    O17     2.331   .     S
Pr1    O19     2.363   .     S
Pr1    O6      2.279   1_546 S
Pr1    O15     2.296   1_545 S
Pr1    O16     2.261   1_546 S
Pr1    O18     2.251   1_655 S
O2     C9      1.304   1_556 A
O3     Pr0     2.399   1_545 S
O3     C9      1.321   1_455 A
O4     C10     1.281   .     A
O4     Pr0     2.304   1_546 S
O5     C10     1.271   1_564 A
O6     Pr0     2.248   1_655 S
O6     Pr1     2.279   1_564 S
O6     C13     1.393   1_655 S
O7     C13     1.223   .     D
C8     O19     1.202   .     D
C8     C36     1.460   .     S
C8     O18     1.347   1_655 S
C9     O2      1.304   1_554 A
C9     O3      1.321   1_655 A
C9     C24     1.460   1_554 S
C10    O5      1.271   1_546 A
C10    C28     1.471   1_546 S
C11    O16     1.257   .     A
C11    C30     1.468   .     S
C11    O17     1.268   1_564 A
C12    O14     1.297   1_556 A
C12    O15     1.296   1_455 A
C12    C22     1.462   1_455 S
C13    O6      1.393   1_455 S
C13    C34     1.469   1_465 S
O14    C12     1.297   1_554 A
O15    Pr1     2.296   1_565 S
O15    C12     1.296   1_655 A
O16    Pr1     2.261   1_564 S
O17    C11     1.268   1_546 A
O18    Pr0     2.224   1_546 S
O18    Pr1     2.251   1_455 S
O18    C8      1.347   1_455 S
N20    C22     1.344   1_454 A
N20    C24     1.351   1_454 A
H21    C23     1.083   .     S
C22    C23     1.375   .     A
C22    N20     1.344   1_656 A
C22    C12     1.462   1_655 S
C23    S25     1.692   .     A
C24    S25     1.713   .     A
C24    N20     1.351   1_656 A
C24    C9      1.460   1_556 S
N26    C28     1.347   1_546 A
N26    C30     1.353   1_546 A
H27    C29     1.083   .     S
C28    C29     1.378   .     A
C28    N26     1.347   1_564 A
C28    C10     1.471   1_564 S
C29    S31     1.688   .     A
C30    S31     1.715   .     A
C30    N26     1.353   1_564 A
N32    C34     1.347   1_465 A
N32    C36     1.353   1_465 A
H33    C35     1.082   .     S
C34    C35     1.378   .     A
C34    N32     1.347   1_645 A
C34    C13     1.469   1_645 S
C35    S37     1.688   .     A
C36    S37     1.712   .     A
C36    N32     1.353   1_645 A
