data_pcu+N505+E1
_audit_creation_date              2023-11-17
_audit_creation_method            'Materials Studio'
_symmetry_space_group_name_H-M    'P1'
_symmetry_Int_Tables_number       1
_symmetry_cell_setting            triclinic
loop_
_symmetry_equiv_pos_as_xyz
  x,y,z
_cell_length_a                    17.6785
_cell_length_b                    23.0919
_cell_length_c                    21.3995
_cell_angle_alpha                 86.1747
_cell_angle_beta                  21.9177
_cell_angle_gamma                 80.4103
loop_
_atom_site_label
_atom_site_type_symbol
_atom_site_fract_x
_atom_site_fract_y
_atom_site_fract_z
_atom_site_U_iso_or_equiv
_atom_site_adp_type
_atom_site_occupancy
Yb0    Yb    1.04008   0.08979  -0.09502   0.00000  Uiso   1.00
Yb1    Yb   -0.04588   0.91688   1.09969   0.00000  Uiso   1.00
C2     C    -0.03677   0.81146   1.07632   0.00000  Uiso   1.00
O3     O     0.18645   0.03231   0.72291   0.00000  Uiso   1.00
O4     O     0.90530   0.10909   0.91858   0.00000  Uiso   1.00
O5     O     0.84928   0.03072   0.08283   0.00000  Uiso   1.00
O6     O     0.75621   0.94730   1.16758   0.00000  Uiso   1.00
O7     O     1.17224   0.16195   0.78615   0.00000  Uiso   1.00
O8     O     0.89383   0.17052   0.05841   0.00000  Uiso   1.00
O9     O     0.80934   0.97429   0.28073   0.00000  Uiso   1.00
O10    O     0.09072   0.89744   0.08450   0.00000  Uiso   1.00
C11    C     1.04891   0.06475   0.78770   0.00000  Uiso   1.00
O12    O     0.23799   0.05936  -0.16291   0.00000  Uiso   1.00
O13    O     0.14584   0.97575   0.92104   0.00000  Uiso   1.00
O14    O    -0.17838   0.84480   0.21893   0.00000  Uiso   1.00
C15    C     0.76421   0.99312   0.12588   0.00000  Uiso   1.00
O16    O     0.09990   0.83610   0.94664   0.00000  Uiso   1.00
C17    C     1.03062   0.19520  -0.07122   0.00000  Uiso   1.00
C18    C    -0.05231   0.94179   0.21512   0.00000  Uiso   1.00
C19    C     0.22997   0.01354   0.87879   0.00000  Uiso   1.00
C20    C    -0.01800   0.62743   1.03332   0.00000  Uiso   1.00
C21    C     0.83811   0.66087   0.18534   0.00000  Uiso   1.00
C22    C     0.83169   0.72073   0.19945   0.00000  Uiso   1.00
C23    C    -0.03083   0.74833   1.06185   0.00000  Uiso   1.00
C24    C     0.11270   0.71503   0.91006   0.00000  Uiso   1.00
C25    C     0.11897   0.65522   0.89595   0.00000  Uiso   1.00
C26    C    -0.01040   0.56380   1.01779   0.00000  Uiso   1.00
C27    C     0.01260   0.54257   0.93981   0.00000  Uiso   1.00
C28    C     0.02047   0.48262   0.92465   0.00000  Uiso   1.00
C29    C     0.00516   0.44260   0.98741   0.00000  Uiso   1.00
C30    C    -0.01800   0.46383   0.06552   0.00000  Uiso   1.00
C31    C    -0.02580   0.52377   0.08063   0.00000  Uiso   1.00
C32    C     0.01273   0.37899   0.97183   0.00000  Uiso   1.00
C33    C     0.87481   0.35127   0.10959   0.00000  Uiso   1.00
C34    C     0.88068   0.29156   0.09549   0.00000  Uiso   1.00
C35    C     0.02472   0.25829   0.94341   0.00000  Uiso   1.00
C36    C     0.16316   0.28582   0.80546   0.00000  Uiso   1.00
C37    C     0.15693   0.34562   0.81963   0.00000  Uiso   1.00
H38    H     0.72870   0.64095   0.29421   0.00000  Uiso   1.00
H39    H     0.71890   0.74540   0.31827   0.00000  Uiso   1.00
H40    H     0.22074   0.73514   0.80179   0.00000  Uiso   1.00
H41    H     0.23317   0.63042   0.77650   0.00000  Uiso   1.00
H42    H     0.02164   0.57258   0.89253   0.00000  Uiso   1.00
H43    H     0.03529   0.46781   0.86612   0.00000  Uiso   1.00
H44    H     0.97265   0.43382   0.11301   0.00000  Uiso   1.00
H45    H     0.95946   0.53857   0.13910   0.00000  Uiso   1.00
H46    H     0.76114   0.37598   0.22874   0.00000  Uiso   1.00
H47    H     0.77192   0.27149   0.20404   0.00000  Uiso   1.00
H48    H     0.27639   0.26118   0.68640   0.00000  Uiso   1.00
H49    H     0.26686   0.36552   0.71060   0.00000  Uiso   1.00
C50    C     0.42451   0.00677  -0.07743   0.00000  Uiso   1.00
C51    C     0.33217   0.06215  -0.04095   0.00000  Uiso   1.00
C52    C     0.26819   0.06363  -0.05419   0.00000  Uiso   1.00
C53    C     0.30153   0.01007  -0.11038   0.00000  Uiso   1.00
C54    C     0.41438   0.95542   0.83441   0.00000  Uiso   1.00
C55    C     0.47143   0.95347   0.85400   0.00000  Uiso   1.00
C56    C     0.46454   0.00505  -0.03889   0.00000  Uiso   1.00
C57    C     0.61345   0.95614   0.87860   0.00000  Uiso   1.00
C58    C     0.65086   0.95501   0.91429   0.00000  Uiso   1.00
C59    C     0.53609   0.00196   0.03804   0.00000  Uiso   1.00
C60    C     0.38723   0.05089   0.12051   0.00000  Uiso   1.00
C61    C     0.35017   0.05207   0.08454   0.00000  Uiso   1.00
C62    C     0.57547   0.00014   0.07712   0.00000  Uiso   1.00
C63    C     0.52752   0.05340   0.14659   0.00000  Uiso   1.00
C64    C     0.58162   0.05135   0.16867   0.00000  Uiso   1.00
C65    C     0.69296  -0.00338   0.11477   0.00000  Uiso   1.00
C66    C     0.72659   0.94310   1.05826   0.00000  Uiso   1.00
C67    C     0.66616   0.94470   1.04197   0.00000  Uiso   1.00
H68    H     0.30675   0.10484  -0.00056   0.00000  Uiso   1.00
H69    H     0.19232   0.10696  -0.02041   0.00000  Uiso   1.00
H70    H     0.45234   0.91400   0.78134   0.00000  Uiso   1.00
H71    H     0.54474   0.90961   0.82108   0.00000  Uiso   1.00
H72    H     0.70801   0.91906   0.78137   0.00000  Uiso   1.00
H73    H     0.77448   0.91754   0.84044   0.00000  Uiso   1.00
H74    H     0.29262   0.08796   0.21779   0.00000  Uiso   1.00
H75    H     0.22741   0.08969   0.15768   0.00000  Uiso   1.00
H76    H     0.45517   0.09729   0.17872   0.00000  Uiso   1.00
H77    H     0.54195   0.09272   0.22321   0.00000  Uiso   1.00
H78    H     0.80100   0.89975   1.02571   0.00000  Uiso   1.00
H79    H     0.69333   0.90204   1.00000   0.00000  Uiso   1.00
C80    C     0.96025  -0.02260   0.40033   0.00000  Uiso   1.00
C81    C     1.10121   0.92610   0.26897   0.00000  Uiso   1.00
C82    C     0.09206   0.91417   0.21325   0.00000  Uiso   1.00
C83    C     0.94639  -0.04597   0.28302   0.00000  Uiso   1.00
C84    C     0.80399   0.00510   0.41488   0.00000  Uiso   1.00
C85    C     0.81046   0.01659   0.47323   0.00000  Uiso   1.00
C86    C     0.97565  -0.00941   0.45552   0.00000  Uiso   1.00
C87    C     0.91974   0.05044   0.51621   0.00000  Uiso   1.00
C88    C     0.94668   0.06288   0.55750   0.00000  Uiso   1.00
C89    C     1.02601   0.01586   0.54326   0.00000  Uiso   1.00
C90    C     1.08226   0.95600   0.48227   0.00000  Uiso   1.00
C91    C     1.05583   0.94356   0.44055   0.00000  Uiso   1.00
C92    C     1.04015   0.02904   0.59949   0.00000  Uiso   1.00
C93    C     1.18770   0.98952   0.52870   0.00000  Uiso   1.00
C94    C     0.19303   1.00108   0.58793   0.00000  Uiso   1.00
C95    C     1.05109   0.05241   0.71915   0.00000  Uiso   1.00
C96    C     0.90764   0.09259   0.78688   0.00000  Uiso   1.00
C97    C     0.90008   0.08069   0.72987   0.00000  Uiso   1.00
H98    H     1.22383   0.89569   0.20453   0.00000  Uiso   1.00
H99    H     0.20354   0.87423   0.11174   0.00000  Uiso   1.00
H100   H     0.68851   0.03630   0.47225   0.00000  Uiso   1.00
H101   H     0.69688   0.05609   0.57616   0.00000  Uiso   1.00
H102   H     0.86317   0.08822   0.52535   0.00000  Uiso   1.00
H103   H     0.90808   0.10976   0.59788   0.00000  Uiso   1.00
H104   H     1.13772   0.91817   0.47400   0.00000  Uiso   1.00
H105   H     1.09359   0.89669   0.40079   0.00000  Uiso   1.00
H106   H     1.30086   0.94977   0.42637   0.00000  Uiso   1.00
H107   H     0.30664   0.96960   0.53230   0.00000  Uiso   1.00
H108   H     0.79620   0.13270   0.88814   0.00000  Uiso   1.00
H109   H     0.77890   0.11136   0.79298   0.00000  Uiso   1.00
loop_
_geom_bond_atom_site_label_1
_geom_bond_atom_site_label_2
_geom_bond_distance
_geom_bond_site_symmetry_2
_ccdc_geom_bond_type
Yb0    O5      2.178   .     S
Yb0    O8      2.098   .     S
Yb0    O3      2.116   1_654 S
Yb0    O4      2.083   1_554 S
Yb0    O7      2.100   1_554 S
Yb0    O12     2.175   1_655 S
Yb1    O13     2.180   .     S
Yb1    O16     2.098   .     S
Yb1    O6      2.175   1_455 S
Yb1    O9      2.115   1_456 S
Yb1    O10     2.083   1_556 S
Yb1    O14     2.100   1_556 S
C2     O16     1.292   .     A
C2     C23     1.477   .     S
C2     O14     1.292   1_556 A
O3     Yb0     2.116   1_456 S
O3     C11     1.293   1_455 A
O4     C11     1.289   .     A
O4     Yb0     2.083   1_556 S
O5     C15     1.274   1_545 A
O6     Yb1     2.175   1_655 S
O6     C15     1.275   1_556 A
O7     Yb0     2.100   1_556 S
O7     C17     1.291   1_556 A
O8     C17     1.292   .     A
O9     Yb1     2.115   1_654 S
O9     C18     1.294   1_655 A
O10    C18     1.289   .     A
O10    Yb1     2.083   1_554 S
C11    C95     1.477   .     S
C11    O3      1.293   1_655 A
O12    Yb0     2.175   1_455 S
O12    C19     1.275   1_554 A
O13    C19     1.274   1_565 A
O14    Yb1     2.100   1_554 S
O14    C2      1.292   1_554 A
C15    O5      1.274   1_565 A
C15    O6      1.275   1_554 A
C15    C65     1.473   1_565 S
C17    O7      1.291   1_554 A
C17    C35     1.477   1_654 S
C18    O9      1.294   1_455 A
C18    C83     1.477   1_465 S
C19    O12     1.275   1_556 A
C19    O13     1.274   1_545 A
C19    C53     1.472   1_556 S
C20    C25     1.405   .     A
C20    C26     1.485   .     S
C20    C21     1.406   1_456 A
C21    C22     1.398   .     A
C21    H38     1.083   .     S
C21    C20     1.406   1_654 A
C22    H39     1.083   .     S
C22    C23     1.404   1_654 A
C23    C24     1.404   .     A
C23    C22     1.404   1_456 A
C24    C25     1.398   .     A
C24    H40     1.083   .     S
C25    H41     1.083   .     S
C26    C27     1.405   .     A
C26    C31     1.405   1_556 A
C27    C28     1.397   .     A
C27    H42     1.083   .     S
C28    C29     1.405   .     A
C28    H43     1.083   .     S
C29    C32     1.484   .     S
C29    C30     1.405   1_556 A
C30    C31     1.398   .     A
C30    C29     1.405   1_554 A
C30    H44     1.083   1_455 S
C31    C26     1.405   1_554 A
C31    H45     1.083   1_455 S
C32    C37     1.406   .     A
C32    C33     1.406   1_456 A
C33    C34     1.397   .     A
C33    H46     1.082   .     S
C33    C32     1.406   1_654 A
C34    H47     1.083   .     S
C34    C35     1.404   1_654 A
C35    C36     1.404   .     A
C35    C34     1.404   1_456 A
C35    C17     1.477   1_456 S
C36    C37     1.398   .     A
C36    H48     1.083   .     S
C37    H49     1.083   .     S
H44    C30     1.083   1_655 S
H45    C31     1.083   1_655 S
C50    C51     1.408   .     A
C50    C56     1.500   .     S
C50    C55     1.414   1_544 A
C51    C52     1.393   .     A
C51    H68     1.080   .     S
C52    C53     1.401   .     A
C52    H69     1.083   .     S
C53    C54     1.398   1_544 A
C53    C19     1.472   1_554 S
C54    C55     1.401   .     A
C54    H70     1.083   .     S
C54    C53     1.398   1_566 A
C55    H71     1.080   .     S
C55    C50     1.414   1_566 A
C56    C61     1.409   .     A
C56    C57     1.405   1_544 A
C57    C58     1.396   .     A
C57    H72     1.079   .     S
C57    C56     1.405   1_566 A
C58    H73     1.080   .     S
C58    C59     1.409   1_566 A
C59    C60     1.405   .     A
C59    C62     1.500   .     S
C59    C58     1.409   1_544 A
C60    C61     1.396   .     A
C60    H74     1.079   .     S
C61    H75     1.079   .     S
C62    C63     1.414   .     A
C62    C67     1.408   1_544 A
C63    C64     1.400   .     A
C63    H76     1.079   .     S
C64    C65     1.398   .     A
C64    H77     1.083   .     S
C65    C66     1.401   1_544 A
C65    C15     1.473   1_545 S
C66    C67     1.393   .     A
C66    H78     1.083   .     S
C66    C65     1.401   1_566 A
C67    H79     1.081   .     S
C67    C62     1.408   1_566 A
C80    C85     1.411   .     A
C80    C86     1.495   .     S
C80    C81     1.407   1_545 A
C81    H98     1.081   .     S
C81    C80     1.407   1_565 A
C81    C82     1.393   1_655 A
C82    H99     1.082   .     S
C82    C81     1.393   1_455 A
C82    C83     1.403   1_465 A
C83    C84     1.402   .     A
C83    C82     1.403   1_645 A
C83    C18     1.477   1_645 S
C84    C85     1.401   .     A
C84    H100    1.083   .     S
C85    H101    1.080   .     S
C86    C87     1.406   .     A
C86    C91     1.408   1_545 A
C87    C88     1.397   .     A
C87    H102    1.081   .     S
C88    C89     1.408   .     A
C88    H103    1.081   .     S
C89    C92     1.495   .     S
C89    C90     1.406   1_545 A
C90    C91     1.397   .     A
C90    H104    1.081   .     S
C90    C89     1.406   1_565 A
C91    H105    1.081   .     S
C91    C86     1.408   1_565 A
C92    C97     1.407   .     A
C92    C93     1.411   1_545 A
C93    H106    1.081   .     S
C93    C92     1.411   1_565 A
C93    C94     1.401   1_655 A
C94    H107    1.083   .     S
C94    C93     1.401   1_455 A
C94    C95     1.402   1_465 A
C95    C96     1.403   .     A
C95    C94     1.402   1_645 A
C96    C97     1.393   .     A
C96    H108    1.083   .     S
C97    H109    1.081   .     S
