data_pcu+N248+E8
_audit_creation_date              2023-11-17
_audit_creation_method            'Materials Studio'
_symmetry_space_group_name_H-M    'P1'
_symmetry_Int_Tables_number       1
_symmetry_cell_setting            triclinic
loop_
_symmetry_equiv_pos_as_xyz
  x,y,z
_cell_length_a                    13.3385
_cell_length_b                    12.3464
_cell_length_c                    15.7431
_cell_angle_alpha                 85.4648
_cell_angle_beta                  85.0747
_cell_angle_gamma                 67.9419
loop_
_atom_site_label
_atom_site_type_symbol
_atom_site_fract_x
_atom_site_fract_y
_atom_site_fract_z
_atom_site_U_iso_or_equiv
_atom_site_adp_type
_atom_site_occupancy
O0     O     0.82522   1.00149   0.93579   0.00000  Uiso   1.00
Yb1    Yb    0.98994   0.00630   0.08879   0.00000  Uiso   1.00
C2     C     0.99673   0.98114   0.24947   0.00000  Uiso   1.00
Yb3    Yb   -0.02288   1.02316   0.90267   0.00000  Uiso   1.00
O4     O     0.82871   0.00353   0.08177   0.00000  Uiso   1.00
C5     C     0.99890   0.20411   0.96140   0.00000  Uiso   1.00
C6     C     0.78228  -0.00072   0.01311   0.00000  Uiso   1.00
O7     O     0.92312   0.12458   0.78879   0.00000  Uiso   1.00
C8     C    -0.03132   0.03555   0.74336   0.00000  Uiso   1.00
O9     O     1.03156   0.82143   0.12427   0.00000  Uiso   1.00
O10    O     0.05006   0.88751   0.99421   0.00000  Uiso   1.00
O11    O     0.15483  -0.00111   0.05951   0.00000  Uiso   1.00
O12    O     0.01872   0.93912   0.78461   0.00000  Uiso   1.00
O13    O     0.14829   1.00985   0.91195   0.00000  Uiso   1.00
C14    C     0.04345   0.79686   0.04907   0.00000  Uiso   1.00
C15    C     0.20037   0.99710   0.98226   0.00000  Uiso   1.00
O16    O     0.03237   0.89332   0.20175   0.00000  Uiso   1.00
O17    O     0.95726   0.08100   0.21006   0.00000  Uiso   1.00
O18    O     0.05214   0.15330   0.89912   0.00000  Uiso   1.00
O19    O     0.92943   0.15224  -0.00123   0.00000  Uiso   1.00
C20    C     1.01632   0.50965   1.04998   0.00000  Uiso   1.00
C21    C     0.05486   0.47555  -0.03338   0.00000  Uiso   1.00
N22    N     0.09194   0.54549  -0.08734   0.00000  Uiso   1.00
C23    C     0.09156   0.64846  -0.06189   0.00000  Uiso   1.00
C24    C     0.05329   0.68247   0.02152   0.00000  Uiso   1.00
N25    N     1.01688   0.61177   1.07558   0.00000  Uiso   1.00
N26    N     0.97498   0.44245   1.10287   0.00000  Uiso   1.00
C27    C     0.96971   0.34286   1.07604   0.00000  Uiso   1.00
C28    C     1.00822   0.30840   0.99280   0.00000  Uiso   1.00
N29    N     0.05068   0.37537  -0.05992   0.00000  Uiso   1.00
H30    H     0.11989   0.70362  -0.10650   0.00000  Uiso   1.00
H31    H     0.93544   0.29140   1.11918   0.00000  Uiso   1.00
C32    C     0.46766  -0.01118   0.03867   0.00000  Uiso   1.00
C33    C     0.52149   0.98826   0.95804   0.00000  Uiso   1.00
N34    N     0.47094   0.98743   0.88701   0.00000  Uiso   1.00
C35    C     0.36842   0.98804   0.89285   0.00000  Uiso   1.00
C36    C     0.31352   0.99004   0.97351   0.00000  Uiso   1.00
N37    N     0.36516  -0.01011   0.04458   0.00000  Uiso   1.00
N38    N     0.51805  -0.00966   0.10964   0.00000  Uiso   1.00
C39    C     0.61976  -0.00787   0.10367   0.00000  Uiso   1.00
C40    C     0.67366  -0.00709   0.02285   0.00000  Uiso   1.00
N41    N     0.62280   0.99048   0.95196   0.00000  Uiso   1.00
H42    H     0.33001   0.98820   0.83499   0.00000  Uiso   1.00
H43    H     0.65756  -0.00610   0.16141   0.00000  Uiso   1.00
C44    C     0.95676   1.06067   0.47503   0.00000  Uiso   1.00
C45    C     0.00692  -0.04815   0.51807   0.00000  Uiso   1.00
N46    N     0.05235  -0.14583   0.47267   0.00000  Uiso   1.00
C47    C     0.04998  -0.13956   0.38608   0.00000  Uiso   1.00
C48    C     0.00014  -0.03053   0.34290   0.00000  Uiso   1.00
N49    N     0.95470   1.06696   0.38878   0.00000  Uiso   1.00
N50    N     0.91126   1.15843   0.52006   0.00000  Uiso   1.00
C51    C     0.91360   1.15254   0.60646   0.00000  Uiso   1.00
C52    C     0.96413   1.04390   0.64996   0.00000  Uiso   1.00
N53    N     0.00973  -0.05413   0.60446   0.00000  Uiso   1.00
H54    H     0.08715  -0.21864   0.35137   0.00000  Uiso   1.00
H55    H     0.87669   1.23203   0.64071   0.00000  Uiso   1.00
loop_
_geom_bond_atom_site_label_1
_geom_bond_atom_site_label_2
_geom_bond_distance
_geom_bond_site_symmetry_2
_ccdc_geom_bond_type
O0     C6      1.303   1_566 A
O0     Yb3     2.157   1_655 S
Yb1    O4      2.176   .     S
Yb1    O17     2.126   .     S
Yb1    O19     2.146   .     S
Yb1    Yb3     2.936   1_644 S
Yb1    O9      2.175   1_545 S
Yb1    O10     2.066   1_644 S
Yb1    O11     2.177   1_655 S
Yb1    O16     2.149   1_645 S
C2     O16     1.283   1_655 A
C2     O17     1.277   1_565 A
C2     C48     1.469   1_665 S
Yb3    O10     2.113   .     S
Yb3    O12     2.129   .     S
Yb3    O13     2.243   .     S
Yb3    O0      2.157   1_455 S
Yb3    Yb1     2.936   1_466 S
Yb3    O7      2.119   1_465 S
Yb3    O18     2.184   1_565 S
Yb3    O19     2.165   1_466 S
O4     C6      1.305   .     A
C5     C28     1.466   .     S
C5     O18     1.226   1_655 D
C5     O19     1.381   1_556 S
C6     C40     1.475   .     S
C6     O0      1.303   1_544 A
O7     Yb3     2.119   1_645 S
O7     C8      1.279   1_655 A
C8     O7      1.279   1_455 A
C8     O12     1.281   1_545 A
C8     C52     1.471   1_445 S
O9     Yb1     2.175   1_565 S
O9     C14     1.228   1_655 D
O10    Yb1     2.066   1_466 S
O10    C14     1.384   1_556 S
O11    Yb1     2.177   1_455 S
O11    C15     1.310   1_544 A
O12    C8      1.281   1_565 A
O13    C15     1.325   .     A
C14    C24     1.465   .     S
C14    O9      1.228   1_455 D
C14    O10     1.384   1_554 S
C15    C36     1.474   .     S
C15    O11     1.310   1_566 A
O16    Yb1     2.149   1_465 S
O16    C2      1.283   1_455 A
O17    C2      1.277   1_545 A
O18    Yb3     2.184   1_545 S
O18    C5      1.226   1_455 D
O19    Yb3     2.165   1_644 S
O19    C5      1.381   1_554 S
C20    N25     1.357   .     A
C20    N26     1.357   .     A
C20    C21     1.405   1_656 A
C21    N22     1.358   .     A
C21    N29     1.358   .     A
C21    C20     1.405   1_454 A
N22    C23     1.361   .     A
C23    C24     1.404   .     A
C23    H30     1.082   .     S
C24    N25     1.361   1_454 A
N25    C24     1.361   1_656 A
N26    C27     1.359   .     A
C27    C28     1.404   .     A
C27    H31     1.082   .     S
C28    N29     1.362   1_656 A
N29    C28     1.362   1_454 A
C32    N37     1.357   .     A
C32    N38     1.357   .     A
C32    C33     1.403   1_544 A
C33    N34     1.357   .     A
C33    N41     1.357   .     A
C33    C32     1.403   1_566 A
N34    C35     1.360   .     A
C35    C36     1.408   .     A
C35    H42     1.082   .     S
C36    N37     1.363   1_566 A
N37    C36     1.363   1_544 A
N38    C39     1.360   .     A
C39    C40     1.408   .     A
C39    H43     1.082   .     S
C40    N41     1.363   1_544 A
N41    C40     1.363   1_566 A
C44    N49     1.356   .     A
C44    N50     1.356   .     A
C44    C45     1.404   1_665 A
C45    N46     1.359   .     A
C45    N53     1.359   .     A
C45    C44     1.404   1_445 A
N46    C47     1.362   .     A
C47    C48     1.406   .     A
C47    H54     1.083   .     S
C48    N49     1.361   1_445 A
C48    C2      1.469   1_445 S
N49    C48     1.361   1_665 A
N50    C51     1.359   .     A
C51    C52     1.406   .     A
C51    H55     1.082   .     S
C52    N53     1.363   1_665 A
C52    C8      1.471   1_665 S
N53    C52     1.363   1_445 A
