data_pcu+N106+E161
_audit_creation_date              2023-11-17
_audit_creation_method            'Materials Studio'
_symmetry_space_group_name_H-M    'P1'
_symmetry_Int_Tables_number       1
_symmetry_cell_setting            triclinic
loop_
_symmetry_equiv_pos_as_xyz
  x,y,z
_cell_length_a                    26.9940
_cell_length_b                    23.9206
_cell_length_c                    22.6675
_cell_angle_alpha                 99.2428
_cell_angle_beta                  61.2078
_cell_angle_gamma                 85.5294
loop_
_atom_site_label
_atom_site_type_symbol
_atom_site_fract_x
_atom_site_fract_y
_atom_site_fract_z
_atom_site_U_iso_or_equiv
_atom_site_adp_type
_atom_site_occupancy
Y0     Y     0.92890   0.00906   0.02524   0.00000  Uiso   1.00
Y1     Y     0.06428   0.99957   0.98639   0.00000  Uiso   1.00
O2     O     0.94748   0.09848   0.01315   0.00000  Uiso   1.00
O3     O     1.01558  -0.00872   0.93053   0.00000  Uiso   1.00
C4     C     0.15830   0.99800   1.00007   0.00000  Uiso   1.00
O5     O     0.10563   0.98423   0.86824   0.00000  Uiso   1.00
O6     O     0.83436   0.04072   0.06910   0.00000  Uiso   1.00
O7     O     0.88104  -0.01302   0.96886   0.00000  Uiso   1.00
O8     O     0.03928   0.09318   0.99219   0.00000  Uiso   1.00
O9     O    -0.02383   1.03310   0.08195   0.00000  Uiso   1.00
O10    O     0.91151  -0.01853   0.12357   0.00000  Uiso   1.00
O11    O     0.96588   0.91426  -0.01157   0.00000  Uiso   1.00
C12    C    -0.00793   0.12085   1.00227   0.00000  Uiso   1.00
O13    O     0.03767   0.91528   1.01228   0.00000  Uiso   1.00
C14    C     0.06184   0.98324   0.86562   0.00000  Uiso   1.00
O15    O     0.15169   0.95769   0.96262   0.00000  Uiso   1.00
O16    O     0.11647   1.03941   0.02984   0.00000  Uiso   1.00
C17    C     0.83276   0.01512   0.01683   0.00000  Uiso   1.00
C18    C     1.00394   0.88882  -0.00180   0.00000  Uiso   1.00
C19    C     0.94927   0.00110   0.12995   0.00000  Uiso   1.00
H20    H     0.94241   0.21014   0.11214   0.00000  Uiso   1.00
C21    C     1.00688   0.82697   0.99631   0.00000  Uiso   1.00
C22    C     1.01092   0.78883   0.93979   0.00000  Uiso   1.00
C23    C     1.01154   0.72995   0.93873   0.00000  Uiso   1.00
C24    C     1.00578   0.70947   0.99649   0.00000  Uiso   1.00
C25    C     1.00128   0.74811   0.05379   0.00000  Uiso   1.00
C26    C     1.00295   0.80642   0.05256   0.00000  Uiso   1.00
C27    C     1.01814   0.68939   0.87622   0.00000  Uiso   1.00
C28    C     0.99311   0.72776   0.11688   0.00000  Uiso   1.00
C29    C     0.05088   0.61315   0.98438   0.00000  Uiso   1.00
C30    C     0.04919   0.55472   0.98553   0.00000  Uiso   1.00
C31    C     0.99837   0.53387   0.99838   0.00000  Uiso   1.00
C32    C     0.94992   0.57174   1.01106   0.00000  Uiso   1.00
C33    C     0.95303   0.63023   1.01169   0.00000  Uiso   1.00
C34    C     0.09696   0.51680   0.97406   0.00000  Uiso   1.00
C35    C     0.09431   0.45885   0.97538   0.00000  Uiso   1.00
C36    C     0.04407   0.43743   0.98737   0.00000  Uiso   1.00
C37    C     0.99600   0.47502   0.99858   0.00000  Uiso   1.00
C38    C     0.94560   0.45389   1.00991   0.00000  Uiso   1.00
C39    C     0.89769   0.49197   1.02179   0.00000  Uiso   1.00
C40    C     0.89974   0.55032   1.02271   0.00000  Uiso   1.00
C41    C     0.04050   0.37926   0.98853   0.00000  Uiso   1.00
C42    C     0.94453   0.39505   1.00897   0.00000  Uiso   1.00
C43    C     0.98904   0.29926   0.99949   0.00000  Uiso   1.00
C44    C     0.04375   0.27231   0.86715   0.00000  Uiso   1.00
C45    C     0.01542   0.19868   0.93833   0.00000  Uiso   1.00
C46    C     0.93576   0.32628   0.13065   0.00000  Uiso   1.00
C47    C     0.96212   0.22365   0.06355   0.00000  Uiso   1.00
C48    C     0.96239   0.28224   0.06323   0.00000  Uiso   1.00
C49    C     0.01523   0.25702   0.93664   0.00000  Uiso   1.00
C50    C    -0.01100   0.18199   1.00137   0.00000  Uiso   1.00
H51    H     0.90005   0.35666   0.13571   0.00000  Uiso   1.00
N52    N     1.00317   0.64961   0.99764   0.00000  Uiso   1.00
N53    N     0.99138   0.35922   0.99890   0.00000  Uiso   1.00
H54    H     0.96868   0.35055   0.13233   0.00000  Uiso   1.00
H55    H     0.01391   0.80524   0.89649   0.00000  Uiso   1.00
H56    H     0.99910   0.83635   0.09656   0.00000  Uiso   1.00
H57    H     1.02402   0.71203   0.83483   0.00000  Uiso   1.00
H58    H     0.05619   0.65483   0.85516   0.00000  Uiso   1.00
H59    H     0.97925   0.66967   0.89040   0.00000  Uiso   1.00
H60    H     0.03095   0.69551   0.10318   0.00000  Uiso   1.00
H61    H     0.98816   0.76378   0.15806   0.00000  Uiso   1.00
H62    H     0.95399   0.70796   0.13804   0.00000  Uiso   1.00
O63    O     0.90564   0.66810   1.02611   0.00000  Uiso   1.00
O64    O     0.10067   0.63379   0.96960   0.00000  Uiso   1.00
H65    H     0.13645   0.53178   0.96434   0.00000  Uiso   1.00
H66    H     0.86200   0.57849   1.03225   0.00000  Uiso   1.00
H67    H     0.13190   0.43091   0.96654   0.00000  Uiso   1.00
H68    H     0.02355   0.25492   0.83731   0.00000  Uiso   1.00
H69    H     0.04003   0.31943   0.87094   0.00000  Uiso   1.00
H70    H     0.03627   0.16604   0.89042   0.00000  Uiso   1.00
H71    H     0.85839   0.47693   1.03086   0.00000  Uiso   1.00
H72    H     0.91821   0.30589   0.17557   0.00000  Uiso   1.00
O73    O     0.89638   0.37332   1.01796   0.00000  Uiso   1.00
O74    O     0.08655   0.34223  -0.02104   0.00000  Uiso   1.00
H75    H     0.09008   0.25281   0.83840   0.00000  Uiso   1.00
H76    H     0.73047   0.08515   0.10339   0.00000  Uiso   1.00
C77    C     0.20987   0.99739   0.00699   0.00000  Uiso   1.00
C78    C     0.25849   0.95455   0.96343   0.00000  Uiso   1.00
C79    C     0.30944   0.95579   0.96566   0.00000  Uiso   1.00
C80    C     0.31164   1.00036   0.01291   0.00000  Uiso   1.00
C81    C     0.26219   0.04260   0.05846   0.00000  Uiso   1.00
C82    C     0.21172   0.04080   0.05500   0.00000  Uiso   1.00
C83    C     0.36161   0.91025   0.91687   0.00000  Uiso   1.00
C84    C     0.26337   0.09002   0.10997   0.00000  Uiso   1.00
C85    C     0.40125   0.03643   0.97369   0.00000  Uiso   1.00
C86    C     0.45376   0.03967   0.97184   0.00000  Uiso   1.00
C87    C     0.46853   1.00821   0.01030   0.00000  Uiso   1.00
C88    C     0.43053   0.97468   0.05039   0.00000  Uiso   1.00
C89    C     0.37815   0.97337   0.05127   0.00000  Uiso   1.00
C90    C     0.49176   0.07336   0.93254   0.00000  Uiso   1.00
C91    C     0.54380   0.07583   0.93138   0.00000  Uiso   1.00
C92    C     0.55913   0.04434   0.96923   0.00000  Uiso   1.00
C93    C     0.52135   1.01041   0.00883   0.00000  Uiso   1.00
C94    C     0.53622   0.97872   0.04708   0.00000  Uiso   1.00
C95    C     0.49812   0.94525   0.08668   0.00000  Uiso   1.00
C96    C     0.44580   0.94333   0.08844   0.00000  Uiso   1.00
C97    C     0.61126   0.04611   0.96891   0.00000  Uiso   1.00
C98    C     0.58892   0.98157   0.04478   0.00000  Uiso   1.00
C99    C     0.67836   1.01775   1.00598   0.00000  Uiso   1.00
C100   C     0.73110   0.93682   0.89682   0.00000  Uiso   1.00
C101   C     0.77984   0.98035   0.95769   0.00000  Uiso   1.00
C102   C     0.62574   0.09827   0.11383   0.00000  Uiso   1.00
C103   C     0.73009   0.05606   0.06187   0.00000  Uiso   1.00
C104   C     0.67924   0.05671   0.05925   0.00000  Uiso   1.00
C105   C     0.72936   0.97970   0.95447   0.00000  Uiso   1.00
C106   C     0.78032   1.01759   1.01177   0.00000  Uiso   1.00
H107   H     0.59209   0.07421   0.14401   0.00000  Uiso   1.00
N108   N     0.36470   1.00369   0.01299   0.00000  Uiso   1.00
N109   N     0.62501   1.01509   1.00641   0.00000  Uiso   1.00
H110   H     0.60951   0.12530   0.08902   0.00000  Uiso   1.00
H111   H     0.25730   0.92096   0.92615   0.00000  Uiso   1.00
H112   H     0.17410   0.07378   0.08903   0.00000  Uiso   1.00
H113   H     0.35272   0.87789   0.88361   0.00000  Uiso   1.00
H114   H     0.39739   0.93035   0.88271   0.00000  Uiso   1.00
H115   H     0.37526   0.88709  -0.05314   0.00000  Uiso   1.00
H116   H     0.29609   0.11601   0.08250   0.00000  Uiso   1.00
H117   H     0.22109   0.11923   0.14216   0.00000  Uiso   1.00
H118   H     0.27431   0.07118   0.14483   0.00000  Uiso   1.00
O119   O     0.34035   0.94137   0.09051   0.00000  Uiso   1.00
O120   O     0.38648   0.06625   0.93588   0.00000  Uiso   1.00
H121   H     0.48140   0.09793   0.90262   0.00000  Uiso   1.00
H122   H     0.41741   0.91719   0.11964   0.00000  Uiso   1.00
H123   H     0.57198   0.10238   0.90075   0.00000  Uiso   1.00
H124   H     0.74460   0.89261   0.89927   0.00000  Uiso   1.00
H125   H     0.68893   0.93877   0.89944   0.00000  Uiso   1.00
H126   H     0.81853   0.95050   0.91868   0.00000  Uiso   1.00
H127   H     0.50853   0.92056   0.11659   0.00000  Uiso   1.00
H128   H     0.63404   0.12757   0.15021   0.00000  Uiso   1.00
O129   O     0.60457   0.95034   0.08088   0.00000  Uiso   1.00
O130   O     0.64866   0.07892   0.93064   0.00000  Uiso   1.00
H131   H     0.76261   0.94499   0.84632   0.00000  Uiso   1.00
H132   H     0.97702   0.94836   0.84821   0.00000  Uiso   1.00
C133   C    -0.03719   0.99343   0.18413   0.00000  Uiso   1.00
C134   C     0.00468   0.02082   0.19015   0.00000  Uiso   1.00
C135   C     0.01745   0.01499   0.24216   0.00000  Uiso   1.00
C136   C    -0.01274   0.98160   0.28955   0.00000  Uiso   1.00
C137   C     0.94562   0.95311   0.28296   0.00000  Uiso   1.00
C138   C     0.93399   0.95907   0.23007   0.00000  Uiso   1.00
C139   C     0.06258   0.04485   0.24754   0.00000  Uiso   1.00
C140   C     0.91267   0.91754   0.33324   0.00000  Uiso   1.00
C141   C     0.96697   0.02305   0.40540   0.00000  Uiso   1.00
C142   C     0.97478   0.02251   0.46224   0.00000  Uiso   1.00
C143   C     0.01219   0.97606   0.45894   0.00000  Uiso   1.00
C144   C     0.04134   0.93126   0.39891   0.00000  Uiso   1.00
C145   C     0.03297   0.93422   0.34276   0.00000  Uiso   1.00
C146   C     0.94618   0.06713   0.52219   0.00000  Uiso   1.00
C147   C     0.95523   0.06608   0.57773   0.00000  Uiso   1.00
C148   C     0.99240   0.01994   0.57498   0.00000  Uiso   1.00
C149   C     0.02055  -0.02548   0.51568   0.00000  Uiso   1.00
C150   C     0.05721   0.92764   0.51288   0.00000  Uiso   1.00
C151   C     0.08559   0.88285   0.45306   0.00000  Uiso   1.00
C152   C     0.07792   0.88476   0.39663   0.00000  Uiso   1.00
C153   C     1.00226   0.01803   0.63017   0.00000  Uiso   1.00
C154   C     0.06466   0.92688   0.57000   0.00000  Uiso   1.00
C155   C     0.04606  -0.02933   0.68490   0.00000  Uiso   1.00
C156   C     0.14117   0.00420   0.62162   0.00000  Uiso   1.00
C157   C     0.10152  -0.01056   0.74248   0.00000  Uiso   1.00
C158   C     0.95174   0.93510   0.74546   0.00000  Uiso   1.00
C159   C     1.00989   0.95928   0.80247   0.00000  Uiso   1.00
C160   C     1.00354   0.95556   0.74418   0.00000  Uiso   1.00
C161   C     0.09556  -0.01273   0.68395   0.00000  Uiso   1.00
C162   C     1.05828  -0.02330   0.80222   0.00000  Uiso   1.00
H163   H    -0.03419   0.89624   0.70328   0.00000  Uiso   1.00
N164   N    -0.00387   0.97953   0.34709   0.00000  Uiso   1.00
N165   N     0.03760  -0.02817   0.62692   0.00000  Uiso   1.00
H166   H     0.92613   0.96924   0.73836   0.00000  Uiso   1.00
H167   H     0.02687   0.04745   0.15472   0.00000  Uiso   1.00
H168   H     0.90181   0.93759   0.22537   0.00000  Uiso   1.00
H169   H     0.08330   0.06796   0.20531   0.00000  Uiso   1.00
H170   H     0.04281   0.07682   0.29775   0.00000  Uiso   1.00
H171   H     0.09651   0.01272   0.24396   0.00000  Uiso   1.00
H172   H     0.88821   0.94511   0.38665   0.00000  Uiso   1.00
H173   H     0.88157   0.89814   0.32115   0.00000  Uiso   1.00
H174   H     0.94294   0.88191   0.33106   0.00000  Uiso   1.00
O175   O     0.06185   0.89160   0.28328   0.00000  Uiso   1.00
O176   O     0.93006   0.06759   0.40815   0.00000  Uiso   1.00
H177   H     0.91704   0.10324   0.52621   0.00000  Uiso   1.00
H178   H     0.10062   0.84966   0.35131   0.00000  Uiso   1.00
H179   H     0.93286   0.10146   0.62290   0.00000  Uiso   1.00
H180   H     0.17631   0.01729   0.62994   0.00000  Uiso   1.00
H181   H     0.16013  -0.03259   0.57621   0.00000  Uiso   1.00
H182   H     0.13904   0.00273   0.74232   0.00000  Uiso   1.00
H183   H     0.11413   0.84638   0.44953   0.00000  Uiso   1.00
H184   H     0.92329   0.92383   0.79532   0.00000  Uiso   1.00
O185   O     0.09935   0.88099   0.56868   0.00000  Uiso   1.00
O186   O     0.97641   0.06273   0.68764   0.00000  Uiso   1.00
H187   H     0.12202   0.04106   0.61051   0.00000  Uiso   1.00
loop_
_geom_bond_atom_site_label_1
_geom_bond_atom_site_label_2
_geom_bond_distance
_geom_bond_site_symmetry_2
_ccdc_geom_bond_type
Y0     O2      2.264   .     S
Y0     O6      2.256   .     S
Y0     O10     2.266   .     S
Y0     O3      2.231   1_554 S
Y0     O7      2.250   1_554 S
Y0     O9      2.251   1_645 S
Y0     O11     2.252   1_545 S
Y1     O5      2.301   .     S
Y1     O13     2.264   .     S
Y1     O15     2.257   .     S
Y1     O3      2.222   1_465 S
Y1     O8      2.252   1_565 S
Y1     O9      2.275   1_556 S
Y1     O16     2.260   1_556 S
O2     C12     1.286   1_654 A
O3     Y0      2.231   1_556 S
O3     Y1      2.222   1_645 S
O3     C14     1.365   1_645 S
C4     O15     1.262   .     A
C4     O16     1.260   1_556 A
C4     C77     1.474   1_556 S
O5     C14     1.214   .     D
O6     C17     1.265   .     A
O7     Y0      2.250   1_556 S
O7     C17     1.264   1_556 A
O8     C12     1.286   .     A
O8     Y1      2.252   1_545 S
O9     Y0      2.251   1_465 S
O9     Y1      2.275   1_554 S
O9     C19     1.375   1_465 S
O10    C19     1.214   .     D
O11    C18     1.281   .     A
O11    Y0      2.252   1_565 S
C12    C50     1.462   .     S
C12    O2      1.286   1_456 A
O13    C18     1.279   1_456 A
C14    O3      1.365   1_465 S
C14    C162    1.470   1_465 S
O16    Y1      2.260   1_554 S
O16    C4      1.260   1_554 A
C17    O7      1.264   1_554 A
C17    C106    1.472   1_544 S
C18    O13     1.279   1_654 A
C18    C21     1.468   1_554 S
C19    O9      1.375   1_645 S
C19    C133    1.473   1_645 S
H20    C47     1.085   .     S
C21    C22     1.400   .     A
C21    C26     1.399   1_556 A
C21    C18     1.468   1_556 S
C22    C23     1.404   .     A
C22    H55     1.085   1_655 S
C23    C24     1.414   .     A
C23    C27     1.506   .     S
C24    N52     1.443   .     S
C24    C25     1.415   1_556 A
C25    C26     1.403   .     A
C25    C28     1.506   .     S
C25    C24     1.415   1_554 A
C26    H56     1.085   .     S
C26    C21     1.399   1_554 A
C27    H57     1.110   .     S
C27    H59     1.108   .     S
C27    H58     1.111   1_655 S
C28    H61     1.111   .     S
C28    H62     1.110   .     S
C28    H60     1.109   1_655 S
C29    C30     1.406   .     A
C29    O64     1.373   .     S
C29    N52     1.370   1_455 A
C30    C34     1.404   .     A
C30    C31     1.408   1_455 A
C31    C32     1.408   .     A
C31    C37     1.415   .     A
C31    C30     1.408   1_655 A
C32    C33     1.406   .     A
C32    C40     1.405   .     A
C33    N52     1.371   .     A
C33    O63     1.373   .     S
C34    C35     1.398   .     A
C34    H65     1.083   .     S
C35    C36     1.405   .     A
C35    H67     1.083   .     S
C36    C41     1.406   .     A
C36    C37     1.408   1_455 A
C37    C38     1.409   .     A
C37    C36     1.408   1_655 A
C38    C39     1.406   .     A
C38    C42     1.407   .     A
C39    C40     1.398   .     A
C39    H71     1.082   .     S
C40    H66     1.083   .     S
C41    N53     1.370   1_455 A
C41    O74     1.372   1_556 S
C42    N53     1.370   .     A
C42    O73     1.373   .     S
C43    N53     1.443   .     S
C43    C48     1.416   1_556 A
C43    C49     1.417   1_655 A
C44    C49     1.506   .     S
C44    H68     1.108   .     S
C44    H69     1.109   .     S
C44    H75     1.110   .     S
C45    C49     1.402   .     A
C45    C50     1.399   .     A
C45    H70     1.084   .     S
C46    C48     1.506   .     S
C46    H51     1.108   .     S
C46    H54     1.111   .     S
C46    H72     1.109   .     S
C47    C48     1.403   .     A
C47    C50     1.399   1_654 A
C48    C43     1.416   1_554 A
C49    C43     1.417   1_455 A
C50    C47     1.399   1_456 A
N52    C29     1.370   1_655 A
N53    C41     1.370   1_655 A
H55    C22     1.085   1_455 S
H58    C27     1.111   1_455 S
H60    C28     1.109   1_455 S
O74    C41     1.372   1_554 S
H76    C103    1.082   .     S
C77    C78     1.402   1_554 A
C77    C82     1.401   1_565 A
C77    C4      1.474   1_554 S
C78    C79     1.403   .     A
C78    H111    1.083   .     S
C78    C77     1.402   1_556 A
C79    C83     1.506   .     S
C79    C80     1.411   1_556 A
C80    N108    1.442   .     S
C80    C79     1.411   1_554 A
C80    C81     1.413   1_565 A
C81    C82     1.406   .     A
C81    C84     1.506   .     S
C81    C80     1.413   1_545 A
C82    H112    1.083   .     S
C82    C77     1.401   1_545 A
C83    H113    1.114   .     S
C83    H114    1.111   .     S
C83    H115    1.111   1_556 S
C84    H116    1.111   .     S
C84    H117    1.110   .     S
C84    H118    1.110   .     S
C85    C86     1.406   .     A
C85    O120    1.372   .     S
C85    N108    1.371   1_546 A
C86    C90     1.405   .     A
C86    C87     1.409   1_546 A
C87    C88     1.409   .     A
C87    C93     1.416   .     A
C87    C86     1.409   1_564 A
C88    C89     1.407   .     A
C88    C96     1.406   .     A
C89    N108    1.369   .     A
C89    O119    1.373   .     S
C90    C91     1.398   .     A
C90    H121    1.081   .     S
C91    C92     1.406   .     A
C91    H123    1.083   .     S
C92    C97     1.407   .     A
C92    C93     1.409   1_546 A
C93    C94     1.409   .     A
C93    C92     1.409   1_564 A
C94    C95     1.405   .     A
C94    C98     1.406   .     A
C95    C96     1.398   .     A
C95    H127    1.083   .     S
C96    H122    1.083   .     S
C97    O130    1.374   .     S
C97    N109    1.369   1_545 A
C98    O129    1.373   .     S
C98    N109    1.371   1_554 A
C99    C105    1.415   .     A
C99    N109    1.442   .     S
C99    C104    1.413   1_566 A
C100   C105    1.505   .     S
C100   H124    1.110   .     S
C100   H125    1.108   .     S
C100   H131    1.110   .     S
C101   C105    1.401   .     A
C101   C106    1.401   .     A
C101   H126    1.083   .     S
C102   C104    1.505   .     S
C102   H107    1.111   .     S
C102   H110    1.112   .     S
C102   H128    1.113   .     S
C103   C104    1.401   .     A
C103   C106    1.401   1_544 A
C104   C99     1.413   1_544 A
C106   C103    1.401   1_566 A
C106   C17     1.472   1_566 S
N108   C85     1.371   1_564 A
N109   C97     1.369   1_565 A
N109   C98     1.371   1_556 A
H115   C83     1.111   1_554 S
H132   C159    1.081   .     S
C133   C134    1.400   1_565 A
C133   C138    1.400   1_455 A
C133   C19     1.473   1_465 S
C134   C135    1.402   .     A
C134   H167    1.082   .     S
C134   C133    1.400   1_545 A
C135   C139    1.503   .     S
C135   C136    1.410   1_545 A
C136   N164    1.443   .     S
C136   C135    1.410   1_565 A
C136   C137    1.414   1_455 A
C137   C138    1.403   .     A
C137   C140    1.506   .     S
C137   C136    1.414   1_655 A
C138   H168    1.082   .     S
C138   C133    1.400   1_655 A
C139   H169    1.112   .     S
C139   H170    1.112   .     S
C139   H171    1.111   .     S
C140   H172    1.115   .     S
C140   H173    1.112   .     S
C140   H174    1.112   .     S
C141   C142    1.404   .     A
C141   O176    1.373   .     S
C141   N164    1.371   1_645 A
C142   C146    1.406   .     A
C142   C143    1.409   1_645 A
C143   C144    1.410   .     A
C143   C142    1.409   1_465 A
C143   C149    1.414   1_565 A
C144   C145    1.407   .     A
C144   C152    1.406   .     A
C145   N164    1.370   .     A
C145   O175    1.374   .     S
C146   C147    1.397   .     A
C146   H177    1.083   .     S
C147   C148    1.405   .     A
C147   H179    1.084   .     S
C148   C153    1.405   .     A
C148   C149    1.408   1_655 A
C149   C143    1.414   1_545 A
C149   C148    1.408   1_455 A
C149   C150    1.409   1_545 A
C150   C151    1.406   .     A
C150   C154    1.405   .     A
C150   C149    1.409   1_565 A
C151   C152    1.398   .     A
C151   H183    1.084   .     S
C152   H178    1.083   .     S
C153   O186    1.374   .     S
C153   N165    1.371   1_655 A
C154   O185    1.373   .     S
C154   N165    1.370   1_565 A
C155   C161    1.415   .     A
C155   N165    1.442   .     S
C155   C160    1.410   1_445 A
C156   C161    1.504   .     S
C156   H180    1.110   .     S
C156   H181    1.108   .     S
C156   H187    1.111   .     S
C157   C161    1.405   .     A
C157   H182    1.084   .     S
C157   C162    1.398   1_455 A
C158   C160    1.506   .     S
C158   H166    1.110   .     S
C158   H184    1.111   .     S
C158   H163    1.110   1_655 S
C159   C160    1.402   .     A
C159   C162    1.400   1_565 A
C160   C155    1.410   1_665 A
C162   C157    1.398   1_655 A
C162   C159    1.400   1_545 A
C162   C14     1.470   1_645 S
H163   C158    1.110   1_455 S
N164   C141    1.371   1_465 A
N165   C153    1.371   1_455 A
N165   C154    1.370   1_545 A
