data_pcu+N155+E14
_audit_creation_date              2023-11-17
_audit_creation_method            'Materials Studio'
_symmetry_space_group_name_H-M    'P1'
_symmetry_Int_Tables_number       1
_symmetry_cell_setting            triclinic
loop_
_symmetry_equiv_pos_as_xyz
  x,y,z
_cell_length_a                    10.8790
_cell_length_b                    11.3932
_cell_length_c                    13.8133
_cell_angle_alpha                 89.9469
_cell_angle_beta                  83.4802
_cell_angle_gamma                 89.9884
loop_
_atom_site_label
_atom_site_type_symbol
_atom_site_fract_x
_atom_site_fract_y
_atom_site_fract_z
_atom_site_U_iso_or_equiv
_atom_site_adp_type
_atom_site_occupancy
C0     C    -0.00012  -0.00009   0.29122   0.00000  Uiso   1.00
Ho1    Ho   -0.00085  -0.00002   0.10328   0.00000  Uiso   1.00
C2     C     1.00039   1.00026   0.70897   0.00000  Uiso   1.00
Ho3    Ho    1.00112   1.00019   0.89691   0.00000  Uiso   1.00
O4     O     0.09954  -0.00010   0.23168   0.00000  Uiso   1.00
O5     O     0.90069  -0.00010   0.24954   0.00000  Uiso   1.00
O6     O     0.18912  -0.00010   0.14053   0.00000  Uiso   1.00
O7     O     0.14991   1.00007   0.98780   0.00000  Uiso   1.00
C8     C     0.23656  -0.00001   1.05534   0.00000  Uiso   1.00
C9     C     0.76372   1.00017  -0.05515   0.00000  Uiso   1.00
O10    O     0.00074   0.80826   0.08316   0.00000  Uiso   1.00
O11    O     0.99954   0.80844   0.91710   0.00000  Uiso   1.00
O12    O     0.90073   1.00026   0.76851   0.00000  Uiso   1.00
O13    O     0.09958   1.00026   0.75065   0.00000  Uiso   1.00
O14    O     0.81115   1.00026   0.85966   0.00000  Uiso   1.00
O15    O     0.85036   0.00009   0.01239   0.00000  Uiso   1.00
O16    O     0.99953   0.19191   0.91703   0.00000  Uiso   1.00
O17    O     0.00074   0.19173   0.08310   0.00000  Uiso   1.00
C18    C     1.00014   0.24567   1.00006   0.00000  Uiso   1.00
C19    C     0.00015   0.75450   0.00013   0.00000  Uiso   1.00
C20    C    -0.00076   0.56153   0.91259   0.00000  Uiso   1.00
C21    C     0.00017   0.62430   0.00012   0.00000  Uiso   1.00
C22    C     1.00079   0.56130   0.08766   0.00000  Uiso   1.00
C23    C     1.00084   0.43864   0.08763   0.00000  Uiso   1.00
C24    C     0.00017   0.37587   0.00007   0.00000  Uiso   1.00
C25    C    -0.00070   0.43887   0.91256   0.00000  Uiso   1.00
H26    H    -0.00170   0.60705   0.84384   0.00000  Uiso   1.00
H27    H     1.00112   0.60667   0.15650   0.00000  Uiso   1.00
H28    H     1.00116   0.39309   0.15646   0.00000  Uiso   1.00
H29    H    -0.00148   0.39352   0.84377   0.00000  Uiso   1.00
C30    C     0.41893   0.00022  -0.07147   0.00000  Uiso   1.00
C31    C     0.37135   0.00002   0.02732   0.00000  Uiso   1.00
C32    C     0.45356   0.99995   1.09871   0.00000  Uiso   1.00
C33    C     0.58134   1.00006   1.07165   0.00000  Uiso   1.00
C34    C     0.62891   0.00011  -0.02713   0.00000  Uiso   1.00
C35    C     0.54671   0.00031  -0.09852   0.00000  Uiso   1.00
H36    H     0.35741   0.00034  -0.12785   0.00000  Uiso   1.00
H37    H     0.41908   0.99986   1.17541   0.00000  Uiso   1.00
H38    H     0.64286   1.00011   1.12803   0.00000  Uiso   1.00
H39    H     0.58120   0.00070  -0.17524   0.00000  Uiso   1.00
C40    C     0.11209  -0.00005   0.43937   0.00000  Uiso   1.00
C41    C    -0.00004  -0.00001   0.39803   0.00000  Uiso   1.00
C42    C     0.88800   1.00011   0.45964   0.00000  Uiso   1.00
C43    C     0.88817   1.00022   0.56083   0.00000  Uiso   1.00
C44    C     0.00031   0.00018   0.60216   0.00000  Uiso   1.00
C45    C     0.11227   0.00006   0.54056   0.00000  Uiso   1.00
H46    H     0.19971  -0.00024   0.39348   0.00000  Uiso   1.00
H47    H     0.80026   1.00016   0.42963   0.00000  Uiso   1.00
H48    H     0.80056   1.00039   0.60672   0.00000  Uiso   1.00
H49    H     0.20001   0.00001   0.57057   0.00000  Uiso   1.00
loop_
_geom_bond_atom_site_label_1
_geom_bond_atom_site_label_2
_geom_bond_distance
_geom_bond_site_symmetry_2
_ccdc_geom_bond_type
C0     O4      1.284   .     A
C0     C41     1.476   .     S
C0     O5      1.279   1_455 A
Ho1    O4      2.186   .     S
Ho1    O6      2.186   .     S
Ho1    O17     2.202   .     S
Ho1    O5      2.177   1_455 S
Ho1    O7      2.154   1_544 S
Ho1    O10     2.202   1_545 S
Ho1    O15     2.158   1_455 S
C2     O12     1.284   .     A
C2     O13     1.279   1_655 A
C2     C44     1.475   1_665 S
Ho3    O11     2.202   .     S
Ho3    O12     2.186   .     S
Ho3    O14     2.186   .     S
Ho3    O7      2.158   1_655 S
Ho3    O13     2.177   1_655 S
Ho3    O15     2.154   1_566 S
Ho3    O16     2.202   1_565 S
O5     C0      1.279   1_655 A
O5     Ho1     2.177   1_655 S
O6     C8      1.230   1_554 D
O7     Ho1     2.154   1_566 S
O7     Ho3     2.158   1_455 S
O7     C8      1.399   1_565 S
C8     O6      1.230   1_556 D
C8     O7      1.399   1_545 S
C8     C31     1.474   1_556 S
C9     O14     1.230   1_554 D
C9     O15     1.399   1_565 S
C9     C34     1.474   1_565 S
O10    C19     1.301   .     A
O10    Ho1     2.202   1_565 S
O11    C19     1.301   1_656 A
O13    C2      1.279   1_455 A
O13    Ho3     2.177   1_455 S
O14    C9      1.230   1_556 D
O15    Ho1     2.158   1_655 S
O15    Ho3     2.154   1_544 S
O15    C9      1.399   1_545 S
O16    C18     1.301   .     A
O16    Ho3     2.202   1_545 S
O17    C18     1.301   1_454 A
C18    O17     1.301   1_656 A
C18    C24     1.483   1_656 S
C19    C21     1.483   .     S
C19    O11     1.301   1_454 A
C20    C25     1.398   .     A
C20    H26     1.083   .     S
C20    C21     1.406   1_556 A
C21    C20     1.406   1_554 A
C21    C22     1.406   1_455 A
C22    C23     1.398   .     A
C22    H27     1.083   .     S
C22    C21     1.406   1_655 A
C23    H28     1.083   .     S
C23    C24     1.406   1_655 A
C24    C23     1.406   1_455 A
C24    C25     1.406   1_554 A
C24    C18     1.483   1_454 S
C25    H29     1.083   .     S
C25    C24     1.406   1_556 A
C30    C31     1.403   .     A
C30    C35     1.398   .     A
C30    H36     1.083   .     S
C31    C32     1.404   1_544 A
C31    C8      1.474   1_554 S
C32    C33     1.398   .     A
C32    H37     1.083   .     S
C32    C31     1.404   1_566 A
C33    H38     1.083   .     S
C33    C34     1.403   1_566 A
C34    C35     1.404   .     A
C34    C33     1.403   1_544 A
C34    C9      1.474   1_545 S
C35    H39     1.083   .     S
C40    C41     1.404   .     A
C40    C45     1.398   .     A
C40    H46     1.083   .     S
C41    C42     1.404   1_445 A
C42    C43     1.398   .     A
C42    H47     1.083   .     S
C42    C41     1.404   1_665 A
C43    H48     1.083   .     S
C43    C44     1.404   1_665 A
C44    C45     1.404   .     A
C44    C43     1.404   1_445 A
C44    C2      1.475   1_445 S
C45    H49     1.083   .     S
