data_pcu+N505+E14
_audit_creation_date              2023-11-17
_audit_creation_method            'Materials Studio'
_symmetry_space_group_name_H-M    'P1'
_symmetry_Int_Tables_number       1
_symmetry_cell_setting            triclinic
loop_
_symmetry_equiv_pos_as_xyz
  x,y,z
_cell_length_a                    9.2838
_cell_length_b                    14.7097
_cell_length_c                    12.4932
_cell_angle_alpha                 95.7467
_cell_angle_beta                  37.7933
_cell_angle_gamma                 85.0269
loop_
_atom_site_label
_atom_site_type_symbol
_atom_site_fract_x
_atom_site_fract_y
_atom_site_fract_z
_atom_site_U_iso_or_equiv
_atom_site_adp_type
_atom_site_occupancy
Yb0    Yb    1.01728   0.13457  -0.09729   0.00000  Uiso   1.00
Yb1    Yb   -0.01706   0.86564   1.09749   0.00000  Uiso   1.00
C2     C    -0.00712   0.69702   1.05231   0.00000  Uiso   1.00
O3     O     0.18375   0.03238   0.67790   0.00000  Uiso   1.00
O4     O     0.85717   0.14848   0.84642   0.00000  Uiso   1.00
O5     O     0.80380   0.04344   0.07954   0.00000  Uiso   1.00
O6     O     0.75094   0.90101   1.09824   0.00000  Uiso   1.00
O7     O     1.16962   0.24571   0.78745   0.00000  Uiso   1.00
O8     O     0.84966   0.26796   0.08356   0.00000  Uiso   1.00
O9     O     0.81649   0.96783   0.32229   0.00000  Uiso   1.00
O10    O     0.14304   0.85172   0.15378   0.00000  Uiso   1.00
C11    C     1.02113   0.07413   0.70901   0.00000  Uiso   1.00
O12    O     0.24932   0.09919  -0.09807   0.00000  Uiso   1.00
O13    O     0.19638   0.95677   0.92067   0.00000  Uiso   1.00
O14    O    -0.16940   0.75449   0.21275   0.00000  Uiso   1.00
C15    C     0.72550   0.97923   0.07313   0.00000  Uiso   1.00
O16    O     0.15056   0.73224   0.91664   0.00000  Uiso   1.00
C17    C     1.00733   0.30318  -0.05211   0.00000  Uiso   1.00
C18    C    -0.02090   0.92608   0.29117   0.00000  Uiso   1.00
C19    C     0.27477   0.02096   0.92702   0.00000  Uiso   1.00
C20    C     0.17305   0.53562   0.84970   0.00000  Uiso   1.00
C21    C    -0.00297   0.59624   0.02554   0.00000  Uiso   1.00
C22    C     0.82401   0.55984   0.17572   0.00000  Uiso   1.00
C23    C     0.82705   0.46460   0.15052   0.00000  Uiso   1.00
C24    C     0.00314   0.40396  -0.02533   0.00000  Uiso   1.00
C25    C     0.17612   0.44037   0.82451   0.00000  Uiso   1.00
H26    H     0.30831   0.56179   0.73147   0.00000  Uiso   1.00
H27    H     0.68618   0.60494   0.31284   0.00000  Uiso   1.00
H28    H     0.69178   0.43843   0.26876   0.00000  Uiso   1.00
H29    H     0.31398   0.39527   0.68738   0.00000  Uiso   1.00
C30    C     0.33430   0.08587   1.07875   0.00000  Uiso   1.00
C31    C     0.38617   0.00924  -0.03273   0.00000  Uiso   1.00
C32    C     0.55502   0.92380  -0.11303   0.00000  Uiso   1.00
C33    C     0.66595   0.91431  -0.07857   0.00000  Uiso   1.00
C34    C     0.61412  -0.00905   0.03287   0.00000  Uiso   1.00
C35    C     0.44521   0.07638   1.11320   0.00000  Uiso   1.00
H36    H     0.20548   0.15263   1.14100   0.00000  Uiso   1.00
H37    H     0.60108   0.86466  -0.20243   0.00000  Uiso   1.00
H38    H     0.79475   0.84755  -0.14082   0.00000  Uiso   1.00
H39    H     0.39914   0.13552   1.20262   0.00000  Uiso   1.00
C40    C     0.14139   0.90880   0.38065   0.00000  Uiso   1.00
C41    C    -0.01514  -0.03689   0.40160   0.00000  Uiso   1.00
C42    C     0.84362   0.05470   0.52196   0.00000  Uiso   1.00
C43    C     0.85888   0.09141   0.61951   0.00000  Uiso   1.00
C44    C     0.01539   0.03710   0.59857   0.00000  Uiso   1.00
C45    C     0.15650   0.94549   0.47831   0.00000  Uiso   1.00
H46    H     0.25330   0.83807   0.28796   0.00000  Uiso   1.00
H47    H     0.72328   0.09836   0.53929   0.00000  Uiso   1.00
H48    H     0.74702   0.16215   0.71216   0.00000  Uiso   1.00
H49    H     0.27671   0.90181   0.46108   0.00000  Uiso   1.00
loop_
_geom_bond_atom_site_label_1
_geom_bond_atom_site_label_2
_geom_bond_distance
_geom_bond_site_symmetry_2
_ccdc_geom_bond_type
Yb0    O5      2.177   .     S
Yb0    O8      2.098   .     S
Yb0    O3      2.104   1_654 S
Yb0    O4      2.091   1_554 S
Yb0    O7      2.098   1_554 S
Yb0    O12     2.164   1_655 S
Yb1    O13     2.177   .     S
Yb1    O16     2.098   .     S
Yb1    O6      2.164   1_455 S
Yb1    O9      2.104   1_456 S
Yb1    O10     2.091   1_556 S
Yb1    O14     2.098   1_556 S
C2     O16     1.292   .     A
C2     O14     1.292   1_556 A
C2     C21     1.477   1_556 S
O3     Yb0     2.104   1_456 S
O3     C11     1.293   1_455 A
O4     C11     1.291   .     A
O4     Yb0     2.091   1_556 S
O5     C15     1.274   1_545 A
O6     Yb1     2.164   1_655 S
O6     C15     1.273   1_556 A
O7     Yb0     2.098   1_556 S
O7     C17     1.292   1_556 A
O8     C17     1.292   .     A
O9     Yb1     2.104   1_654 S
O9     C18     1.293   1_655 A
O10    C18     1.291   .     A
O10    Yb1     2.091   1_554 S
C11    O3      1.293   1_655 A
C11    C44     1.474   1_655 S
O12    Yb0     2.164   1_455 S
O12    C19     1.273   1_554 A
O13    C19     1.274   1_565 A
O14    Yb1     2.098   1_554 S
O14    C2      1.292   1_554 A
C15    O5      1.274   1_565 A
C15    O6      1.273   1_554 A
C15    C34     1.470   1_565 S
C17    O7      1.292   1_554 A
C17    C24     1.477   1_655 S
C18    O9      1.293   1_455 A
C18    C41     1.474   1_565 S
C19    O12     1.273   1_556 A
C19    O13     1.274   1_545 A
C19    C31     1.470   1_556 S
C20    C25     1.398   .     A
C20    H26     1.083   .     S
C20    C21     1.405   1_556 A
C21    C20     1.405   1_554 A
C21    C22     1.405   1_455 A
C21    C2      1.477   1_554 S
C22    C23     1.398   .     A
C22    H27     1.083   .     S
C22    C21     1.405   1_655 A
C23    H28     1.083   .     S
C23    C24     1.405   1_655 A
C24    C23     1.405   1_455 A
C24    C25     1.405   1_554 A
C24    C17     1.477   1_455 S
C25    H29     1.083   .     S
C25    C24     1.405   1_556 A
C30    C35     1.397   .     A
C30    H36     1.083   .     S
C30    C31     1.405   1_556 A
C31    C30     1.405   1_554 A
C31    C32     1.401   1_545 A
C31    C19     1.470   1_554 S
C32    C33     1.397   .     A
C32    H37     1.083   .     S
C32    C31     1.401   1_565 A
C33    H38     1.083   .     S
C33    C34     1.405   1_565 A
C34    C33     1.405   1_545 A
C34    C35     1.401   1_554 A
C34    C15     1.470   1_545 S
C35    H39     1.083   .     S
C35    C34     1.401   1_556 A
C40    C45     1.397   .     A
C40    H46     1.083   .     S
C40    C41     1.405   1_565 A
C41    C40     1.405   1_545 A
C41    C42     1.403   1_455 A
C41    C18     1.474   1_545 S
C42    C43     1.397   .     A
C42    H47     1.083   .     S
C42    C41     1.403   1_655 A
C43    H48     1.083   .     S
C43    C44     1.405   1_655 A
C44    C43     1.405   1_455 A
C44    C45     1.403   1_545 A
C44    C11     1.474   1_455 S
C45    H49     1.083   .     S
C45    C44     1.403   1_565 A
