data_pcu+N248+E14
_audit_creation_date              2023-11-17
_audit_creation_method            'Materials Studio'
_symmetry_space_group_name_H-M    'P1'
_symmetry_Int_Tables_number       1
_symmetry_cell_setting            triclinic
loop_
_symmetry_equiv_pos_as_xyz
  x,y,z
_cell_length_a                    11.3413
_cell_length_b                    10.1473
_cell_length_c                    13.7478
_cell_angle_alpha                 86.9869
_cell_angle_beta                  90.0216
_cell_angle_gamma                 71.4449
loop_
_atom_site_label
_atom_site_type_symbol
_atom_site_fract_x
_atom_site_fract_y
_atom_site_fract_z
_atom_site_U_iso_or_equiv
_atom_site_adp_type
_atom_site_occupancy
O0     O     0.80059   0.98931   0.91107   0.00000  Uiso   1.00
Yb1    Yb    0.98471   0.01824   0.09989   0.00000  Uiso   1.00
C2     C     0.98265   1.00953   0.28424   0.00000  Uiso   1.00
Yb3    Yb   -0.01948   1.01353   0.88668   0.00000  Uiso   1.00
O4     O     0.79693   0.01136   0.07698   0.00000  Uiso   1.00
C5     C     1.01321   0.23817   0.94832   0.00000  Uiso   1.00
C6     C     0.74593  -0.00356  -0.00509   0.00000  Uiso   1.00
O7     O     0.92918   0.11899   0.74841   0.00000  Uiso   1.00
C8     C    -0.02021   0.00749   0.70424   0.00000  Uiso   1.00
O9     O     1.02064   0.80248   0.15122   0.00000  Uiso   1.00
O10    O     0.05294   0.86472   1.00276   0.00000  Uiso   1.00
O11    O     0.17811   0.00808   0.08222   0.00000  Uiso   1.00
O12    O     0.03062   0.89837   0.75957   0.00000  Uiso   1.00
O13    O     0.17877   1.00185   0.91369   0.00000  Uiso   1.00
C14    C     0.03660   0.76346   0.06776   0.00000  Uiso   1.00
C15    C     0.23539   0.99660   0.99881   0.00000  Uiso   1.00
O16    O     0.02173   0.89883   0.23666   0.00000  Uiso   1.00
O17    O     0.94446   0.12303   0.23165   0.00000  Uiso   1.00
O18    O     0.07581   0.16974   0.88463   0.00000  Uiso   1.00
O19    O     0.92721   0.17986  -0.01375   0.00000  Uiso   1.00
C20    C     0.98840   0.54290   0.10149   0.00000  Uiso   1.00
C21    C     0.04175   0.62339   0.04096   0.00000  Uiso   1.00
C22    C     0.09099   0.57355   0.95142   0.00000  Uiso   1.00
C23    C     0.08592   0.44530   0.92243   0.00000  Uiso   1.00
C24    C     0.02831   0.36743  -0.01855   0.00000  Uiso   1.00
C25    C     0.98051   0.41662   0.07142   0.00000  Uiso   1.00
H26    H     0.94863   0.58011   0.17041   0.00000  Uiso   1.00
H27    H     0.13198   0.63445   0.90343   0.00000  Uiso   1.00
H28    H     0.12336   0.40914   0.85265   0.00000  Uiso   1.00
H29    H     0.93580   0.35817   0.11807   0.00000  Uiso   1.00
C30    C     0.43301   0.97876   0.91095   0.00000  Uiso   1.00
C31    C     0.36813  -0.01138  -0.00122   0.00000  Uiso   1.00
C32    C     0.43019  -0.00427   0.08592   0.00000  Uiso   1.00
C33    C     0.55336  -0.00392   0.08494   0.00000  Uiso   1.00
C34    C     0.61743  -0.01091  -0.00320   0.00000  Uiso   1.00
C35    C     0.55615   0.97885   0.90998   0.00000  Uiso   1.00
H36    H     0.38829   0.97268   0.84248   0.00000  Uiso   1.00
H37    H     0.38314   0.00318   0.15491   0.00000  Uiso   1.00
H38    H     0.59773   0.00362   0.15325   0.00000  Uiso   1.00
H39    H     0.60261   0.97288   0.84077   0.00000  Uiso   1.00
C40    C     0.03228   0.88213   0.44797   0.00000  Uiso   1.00
C41    C    -0.01880   0.00719   0.39166   0.00000  Uiso   1.00
C42    C     0.92893   0.13137   0.43886   0.00000  Uiso   1.00
C43    C     0.92799   0.13082   0.54039   0.00000  Uiso   1.00
C44    C    -0.02026   0.00616   0.59689   0.00000  Uiso   1.00
C45    C     0.03179   0.88166   0.54984   0.00000  Uiso   1.00
H46    H     0.07325   0.78496   0.41331   0.00000  Uiso   1.00
H47    H     0.88860   0.22926   0.39728   0.00000  Uiso   1.00
H48    H     0.88719   0.22835   0.57465   0.00000  Uiso   1.00
H49    H     0.07235   0.78410   0.59171   0.00000  Uiso   1.00
loop_
_geom_bond_atom_site_label_1
_geom_bond_atom_site_label_2
_geom_bond_distance
_geom_bond_site_symmetry_2
_ccdc_geom_bond_type
O0     C6      1.303   1_566 A
O0     Yb3     2.156   1_655 S
Yb1    O4      2.176   .     S
Yb1    O17     2.125   .     S
Yb1    O19     2.146   .     S
Yb1    Yb3     2.935   1_644 S
Yb1    O9      2.174   1_545 S
Yb1    O10     2.064   1_644 S
Yb1    O11     2.177   1_655 S
Yb1    O16     2.148   1_645 S
C2     O16     1.283   1_655 A
C2     O17     1.277   1_565 A
C2     C41     1.476   1_665 S
Yb3    O10     2.111   .     S
Yb3    O12     2.129   .     S
Yb3    O13     2.243   .     S
Yb3    O0      2.156   1_455 S
Yb3    Yb1     2.935   1_466 S
Yb3    O7      2.118   1_465 S
Yb3    O18     2.183   1_565 S
Yb3    O19     2.164   1_466 S
O4     C6      1.305   .     A
C5     O18     1.226   1_655 D
C5     O19     1.382   1_556 S
C5     C24     1.471   1_656 S
C6     C34     1.483   .     S
C6     O0      1.303   1_544 A
O7     Yb3     2.118   1_645 S
O7     C8      1.280   1_655 A
C8     C44     1.477   .     S
C8     O7      1.280   1_455 A
C8     O12     1.281   1_545 A
O9     Yb1     2.174   1_565 S
O9     C14     1.228   1_655 D
O10    Yb1     2.064   1_466 S
O10    C14     1.383   1_556 S
O11    Yb1     2.177   1_455 S
O11    C15     1.310   1_544 A
O12    C8      1.281   1_565 A
O13    C15     1.325   .     A
C14    C21     1.470   .     S
C14    O9      1.228   1_455 D
C14    O10     1.383   1_554 S
C15    O11     1.310   1_566 A
C15    C31     1.482   1_566 S
O16    Yb1     2.148   1_465 S
O16    C2      1.283   1_455 A
O17    C2      1.277   1_545 A
O18    Yb3     2.183   1_545 S
O18    C5      1.226   1_455 D
O19    Yb3     2.164   1_644 S
O19    C5      1.382   1_554 S
C20    C25     1.396   .     A
C20    H26     1.083   .     S
C20    C21     1.403   1_655 A
C21    C20     1.403   1_455 A
C21    C22     1.403   1_554 A
C22    C23     1.399   .     A
C22    H27     1.083   .     S
C22    C21     1.403   1_556 A
C23    H28     1.083   .     S
C23    C24     1.404   1_556 A
C24    C23     1.404   1_554 A
C24    C25     1.402   1_455 A
C24    C5      1.471   1_454 S
C25    H29     1.083   .     S
C25    C24     1.402   1_655 A
C30    C35     1.397   .     A
C30    H36     1.083   .     S
C30    C31     1.406   1_566 A
C31    C32     1.406   .     A
C31    C30     1.406   1_544 A
C31    C15     1.482   1_544 S
C32    C33     1.398   .     A
C32    H37     1.083   .     S
C33    C34     1.406   .     A
C33    H38     1.083   .     S
C34    C35     1.406   1_544 A
C35    H39     1.083   .     S
C35    C34     1.406   1_566 A
C40    C45     1.400   .     A
C40    H46     1.083   .     S
C40    C41     1.405   1_565 A
C41    C40     1.405   1_545 A
C41    C42     1.404   1_455 A
C41    C2      1.476   1_445 S
C42    C43     1.396   .     A
C42    H47     1.083   .     S
C42    C41     1.404   1_655 A
C43    H48     1.083   .     S
C43    C44     1.404   1_655 A
C44    C43     1.404   1_455 A
C44    C45     1.405   1_545 A
C45    H49     1.083   .     S
C45    C44     1.405   1_565 A
