data_pcu+N394+E229
_audit_creation_date              2023-11-17
_audit_creation_method            'Materials Studio'
_symmetry_space_group_name_H-M    'P1'
_symmetry_Int_Tables_number       1
_symmetry_cell_setting            triclinic
loop_
_symmetry_equiv_pos_as_xyz
  x,y,z
_cell_length_a                    24.9260
_cell_length_b                    22.7063
_cell_length_c                    23.0653
_cell_angle_alpha                 80.5786
_cell_angle_beta                  88.7806
_cell_angle_gamma                 36.0630
loop_
_atom_site_label
_atom_site_type_symbol
_atom_site_fract_x
_atom_site_fract_y
_atom_site_fract_z
_atom_site_U_iso_or_equiv
_atom_site_adp_type
_atom_site_occupancy
Pr0    Pr    0.09358   0.95012   0.01652   0.00000  Uiso   1.00
Pr1    Pr    0.87244   0.08307   1.00743   0.00000  Uiso   1.00
O2     O     0.91610   0.14410   0.99680   0.00000  Uiso   1.00
O3     O     0.03298   0.09852   0.00286   0.00000  Uiso   1.00
O4     O     0.21156  -0.10939   0.97621   0.00000  Uiso   1.00
O5     O     0.23617   0.83728   0.07051   0.00000  Uiso   1.00
O6     O     1.00357   0.97067   0.07682   0.00000  Uiso   1.00
O7     O     0.05949   0.99692   0.10812   0.00000  Uiso   1.00
C8     C     0.96799   0.01691   0.91197   0.00000  Uiso   1.00
C9     C     0.94542   0.17168  -0.00807   0.00000  Uiso   1.00
C10    C     0.26828  -0.16472   1.02604   0.00000  Uiso   1.00
C11    C     0.73243   0.13850  -0.03026   0.00000  Uiso   1.00
C12    C     0.07823   0.82159   1.01928   0.00000  Uiso   1.00
C13    C     0.00848   1.00217   0.11859   0.00000  Uiso   1.00
O14    O     0.13360   0.81605   0.02496   0.00000  Uiso   1.00
O15    O     0.98831   0.90745   1.00908   0.00000  Uiso   1.00
O16    O     0.79002   1.07211   0.01895   0.00000  Uiso   1.00
O17    O     0.74572   0.17788   0.94031   0.00000  Uiso   1.00
O18    O    -0.04252   0.06719   0.94719   0.00000  Uiso   1.00
O19    O     0.93530  -0.00061   0.92962   0.00000  Uiso   1.00
C20    C     0.10315   0.63030   0.04582   0.00000  Uiso   1.00
C21    C     0.19808   0.53804   0.04612   0.00000  Uiso   1.00
C22    C     0.25331   0.53842   0.03646   0.00000  Uiso   1.00
C23    C     0.21460   0.63057   0.02705   0.00000  Uiso   1.00
C24    C     0.11924   0.72422   0.02593   0.00000  Uiso   1.00
C25    C     0.06379   0.72335   0.03475   0.00000  Uiso   1.00
C26    C     0.04537   0.62847   0.06043   0.00000  Uiso   1.00
H27    H     0.22900   0.46608   0.05410   0.00000  Uiso   1.00
H28    H     0.32674   0.46673   0.03723   0.00000  Uiso   1.00
H29    H     0.25890   0.62890   0.02045   0.00000  Uiso   1.00
H30    H     0.99086   0.79410   0.03549   0.00000  Uiso   1.00
H31    H     0.07661   0.57648   0.10566   0.00000  Uiso   1.00
H32    H     0.97357   0.70689   0.06170   0.00000  Uiso   1.00
C33    C     0.85634   0.41141   0.94916   0.00000  Uiso   1.00
C34    C    -0.08621   0.30912   0.95753   0.00000  Uiso   1.00
C35    C    -0.11015   0.44199   0.92629   0.00000  Uiso   1.00
C36    C    -0.06226   0.49413   0.95352   0.00000  Uiso   1.00
C37    C    -0.05836   0.52935   0.00199   0.00000  Uiso   1.00
C38    C     0.76687   0.48537   0.96225   0.00000  Uiso   1.00
C39    C     0.73463   0.45785   0.98227   0.00000  Uiso   1.00
C40    C     0.88201   0.28086   0.97840   0.00000  Uiso   1.00
H41    H     0.72209   0.56435   0.95674   0.00000  Uiso   1.00
H42    H     0.66585   0.51490   0.99255   0.00000  Uiso   1.00
H43    H     0.76571   0.33627   1.00616   0.00000  Uiso   1.00
H44    H    -0.01670   0.25150   0.94804   0.00000  Uiso   1.00
H45    H     0.83832   0.50907   0.88659   0.00000  Uiso   1.00
C46    C    -0.01173   0.58761   0.03076   0.00000  Uiso   1.00
C47    C    -0.01194   0.54689  -0.01538   0.00000  Uiso   1.00
H48    H     0.00890   0.42419   0.94517   0.00000  Uiso   1.00
H49    H     0.86997   0.60223   0.00808   0.00000  Uiso   1.00
H50    H    -0.01801   0.46915   0.04487   0.00000  Uiso   1.00
H51    H    -0.10735   0.55735   0.91161   0.00000  Uiso   1.00
H52    H    -0.04267   0.37753   0.91201   0.00000  Uiso   1.00
H53    H     0.91551   0.66619   0.03035   0.00000  Uiso   1.00
H54    H     0.01926   0.53548   0.07588   0.00000  Uiso   1.00
N55    N     0.04277   0.59151   0.01578   0.00000  Uiso   1.00
N56    N     0.89973   0.47010   0.97334   0.00000  Uiso   1.00
C57    C     0.79163   0.35626   0.98996   0.00000  Uiso   1.00
C58    C     0.46717   0.75891   0.99803   0.00000  Uiso   1.00
C59    C     0.53219   0.68274   1.05084   0.00000  Uiso   1.00
C60    C     0.51309   0.65293   1.09378   0.00000  Uiso   1.00
C61    C     0.42759   0.70129   1.08522   0.00000  Uiso   1.00
C62    C     0.36179   0.77736   1.03251   0.00000  Uiso   1.00
C63    C     0.38300   0.80403   0.98836   0.00000  Uiso   1.00
C64    C     0.48537   0.79670   0.95499   0.00000  Uiso   1.00
H65    H     0.59689   0.64805   1.05917   0.00000  Uiso   1.00
H66    H     0.56360   0.59425   1.13452   0.00000  Uiso   1.00
H67    H     0.41284   0.67958   1.12002   0.00000  Uiso   1.00
H68    H     0.33194  -0.13599   0.94808   0.00000  Uiso   1.00
H69    H     0.55161   0.73018   0.94025   0.00000  Uiso   1.00
H70    H     0.42859  -0.14495   0.91481   0.00000  Uiso   1.00
C71    C     0.57916   0.14059  -0.04014   0.00000  Uiso   1.00
C72    C     0.64800   1.11779  -0.01876   0.00000  Uiso   1.00
C73    C     0.56891   0.08927  -0.00428   0.00000  Uiso   1.00
C74    C     0.55604   0.99588  -0.00791   0.00000  Uiso   1.00
C75    C     0.55208   0.95196   0.95191   0.00000  Uiso   1.00
C76    C     0.51880   0.21321  -0.09492   0.00000  Uiso   1.00
C77    C     0.52779   0.26145  -0.12804   0.00000  Uiso   1.00
C78    C     0.65739   0.16613  -0.05194   0.00000  Uiso   1.00
H79    H     0.46532   0.23176  -0.11208   0.00000  Uiso   1.00
H80    H     0.48109   0.31723  -0.17030   0.00000  Uiso   1.00
H81    H     0.60154   0.27748  -0.13310   0.00000  Uiso   1.00
H82    H     0.69497   1.06150   0.02354   0.00000  Uiso   1.00
H83    H     0.50063   0.14982   0.00994   0.00000  Uiso   1.00
C84    C     0.52051   0.87017   0.94949   0.00000  Uiso   1.00
C85    C     0.52831   0.91356  -0.01381   0.00000  Uiso   1.00
H86    H     0.61269   0.93322   0.03186   0.00000  Uiso   1.00
H87    H     0.49789   0.01329   0.91103   0.00000  Uiso   1.00
H88    H     0.62074   0.88660   0.93897   0.00000  Uiso   1.00
H89    H     0.48859   0.05736   0.00732   0.00000  Uiso   1.00
H90    H     0.62506   1.03045   0.03642   0.00000  Uiso   1.00
H91    H     0.46826  -0.07066   0.90753   0.00000  Uiso   1.00
H92    H     0.58956   0.80016   0.93878   0.00000  Uiso   1.00
N93    N     0.49093   0.84356   0.98561   0.00000  Uiso   1.00
N94    N     0.57336   0.03886  -0.04099   0.00000  Uiso   1.00
C95    C     0.59648   0.23842  -0.10671   0.00000  Uiso   1.00
C96    C     0.97629   1.02387   0.27837   0.00000  Uiso   1.00
C97    C     0.89568   1.06177   0.27780   0.00000  Uiso   1.00
C98    C     0.85041   1.08380   0.22493   0.00000  Uiso   1.00
C99    C     0.88663   1.06508   0.17266   0.00000  Uiso   1.00
C100   C     0.96718   1.02701   0.17253   0.00000  Uiso   1.00
C101   C     0.01097   1.00768   0.22526   0.00000  Uiso   1.00
C102   C     0.03203   0.98917   0.33586   0.00000  Uiso   1.00
H103   H     0.86892   1.07238   0.31841   0.00000  Uiso   1.00
H104   H     0.78809   1.11351   0.22475   0.00000  Uiso   1.00
H105   H     0.85205   1.08000   0.13243   0.00000  Uiso   1.00
H106   H     0.07453   0.97569   0.22565   0.00000  Uiso   1.00
H107   H     1.08210   0.90686   0.35606   0.00000  Uiso   1.00
H108   H     0.07234   0.99416   0.32603   0.00000  Uiso   1.00
C109   C     0.01468   0.01027   0.75473   0.00000  Uiso   1.00
C110   C     0.96810   0.04209   0.80324   0.00000  Uiso   1.00
C111   C     0.95840   0.07747   0.69210   0.00000  Uiso   1.00
C112   C     0.95870   0.07991   0.58694   0.00000  Uiso   1.00
C113   C     1.02210   1.02434   0.54157   0.00000  Uiso   1.00
C114   C     0.11243  -0.08250   0.76630   0.00000  Uiso   1.00
C115   C     0.16166  -0.14201   0.82496   0.00000  Uiso   1.00
C116   C     0.01754  -0.01753   0.86197   0.00000  Uiso   1.00
H117   H     0.15113  -0.10896   0.73034   0.00000  Uiso   1.00
H118   H     0.23662  -0.21316   0.83337   0.00000  Uiso   1.00
H119   H     0.15349  -0.15626   0.91780   0.00000  Uiso   1.00
H120   H     0.89294   0.11364   0.79511   0.00000  Uiso   1.00
H121   H     0.92846   0.14982   0.68763   0.00000  Uiso   1.00
C122   C     0.02851   1.01119   0.43476   0.00000  Uiso   1.00
C123   C     0.96564   0.07110   0.47954   0.00000  Uiso   1.00
H124   H     0.91344   0.08077   0.58523   0.00000  Uiso   1.00
H125   H     0.06191   1.03070   0.53975   0.00000  Uiso   1.00
H126   H     1.07165   0.94135   0.55610   0.00000  Uiso   1.00
H127   H     0.91452   0.16078   0.57567   0.00000  Uiso   1.00
H128   H     0.90004   0.09792   0.68577   0.00000  Uiso   1.00
H129   H     0.06723   1.01878   0.42850   0.00000  Uiso   1.00
H130   H     1.07856   0.92841   0.45272   0.00000  Uiso   1.00
N131   N     0.97207   1.05234   0.37766   0.00000  Uiso   1.00
N132   N     1.01579   0.02514   0.64674   0.00000  Uiso   1.00
C133   C     0.11457  -0.10951   0.87271   0.00000  Uiso   1.00
loop_
_geom_bond_atom_site_label_1
_geom_bond_atom_site_label_2
_geom_bond_distance
_geom_bond_site_symmetry_2
_ccdc_geom_bond_type
Pr0    O5      2.273   .     S
Pr0    O7      2.348   .     S
Pr0    O14     2.281   .     S
Pr0    O3      2.276   1_565 S
Pr0    O4      2.282   1_564 S
Pr0    O6      2.361   1_455 S
Pr0    O18     2.322   1_564 S
Pr1    O2      2.341   .     S
Pr1    O17     2.265   .     S
Pr1    O19     2.339   .     S
Pr1    O6      2.271   1_546 S
Pr1    O15     2.362   1_545 S
Pr1    O16     2.266   1_546 S
Pr1    O18     2.315   1_655 S
O2     C9      1.285   1_556 A
O3     Pr0     2.276   1_545 S
O3     C9      1.269   1_455 A
O4     C10     1.274   .     A
O4     Pr0     2.282   1_546 S
O5     C10     1.271   1_564 A
O6     Pr0     2.361   1_655 S
O6     Pr1     2.271   1_564 S
O6     C13     1.352   1_655 S
O7     C13     1.200   .     D
C8     O19     1.202   .     D
C8     O18     1.357   1_655 S
C8     C116    1.463   1_655 S
C9     O2      1.285   1_554 A
C9     O3      1.269   1_655 A
C9     C40     1.475   1_554 S
C10    O5      1.271   1_546 A
C10    C62     1.476   1_545 S
C11    C78     1.477   .     S
C11    O16     1.278   1_545 A
C11    O17     1.281   1_554 A
C12    O14     1.288   1_556 A
C12    O15     1.299   1_455 A
C12    C24     1.483   1_556 S
C13    O6      1.352   1_455 S
C13    C100    1.471   1_455 S
O14    C12     1.288   1_554 A
O15    Pr1     2.362   1_565 S
O15    C12     1.299   1_655 A
O16    Pr1     2.266   1_564 S
O16    C11     1.278   1_565 A
O17    C11     1.281   1_556 A
O18    Pr0     2.322   1_546 S
O18    Pr1     2.315   1_455 S
O18    C8      1.357   1_455 S
C20    C21     1.403   .     A
C20    C25     1.405   .     A
C20    C26     1.504   .     S
C21    C22     1.397   .     A
C21    H27     1.081   .     S
C22    C23     1.397   .     A
C22    H28     1.084   .     S
C23    C24     1.409   .     A
C23    H29     1.082   .     S
C24    C25     1.408   .     A
C24    C12     1.483   1_554 S
C25    H30     1.083   1_455 S
C26    H31     1.111   .     S
C26    N55     1.464   .     S
C26    H32     1.112   1_455 S
H30    C25     1.083   1_655 S
H32    C26     1.112   1_655 S
C33    C38     1.403   .     A
C33    C34     1.404   1_655 A
C33    C35     1.502   1_655 S
C34    H44     1.084   .     S
C34    C33     1.404   1_455 A
C34    C40     1.405   1_455 A
C35    H52     1.111   .     S
C35    C33     1.502   1_455 S
C35    H45     1.113   1_455 S
C35    N56     1.462   1_455 S
C36    H48     1.112   .     S
C36    H51     1.114   .     S
C36    C37     1.524   1_556 S
C36    N56     1.463   1_455 S
C37    C47     1.527   .     S
C37    H50     1.111   .     S
C37    C36     1.524   1_554 S
C37    H49     1.112   1_455 S
C38    C39     1.396   .     A
C38    H41     1.083   .     S
C39    H42     1.080   .     S
C39    C57     1.396   .     A
C40    C57     1.402   .     A
C40    C34     1.405   1_655 A
C40    C9      1.475   1_556 S
H43    C57     1.082   .     S
H45    C35     1.113   1_655 S
C46    C47     1.522   .     S
C46    H54     1.111   .     S
C46    N55     1.462   .     S
C46    H53     1.112   1_455 S
H49    C37     1.112   1_655 S
H53    C46     1.112   1_655 S
N56    C35     1.462   1_655 S
N56    C36     1.463   1_655 S
C58    C59     1.401   .     A
C58    C63     1.404   .     A
C58    C64     1.503   .     S
C59    C60     1.396   .     A
C59    H65     1.081   .     S
C60    C61     1.396   .     A
C60    H66     1.082   .     S
C61    C62     1.403   .     A
C61    H67     1.083   .     S
C62    C63     1.406   .     A
C62    C10     1.476   1_565 S
C63    H68     1.082   1_565 S
C64    H69     1.111   .     S
C64    N93     1.462   .     S
C64    H70     1.113   1_565 S
H68    C63     1.082   1_545 S
H70    C64     1.113   1_545 S
C71    C73     1.505   .     S
C71    C76     1.402   .     A
C71    C72     1.404   1_545 A
C72    H82     1.085   .     S
C72    C71     1.404   1_565 A
C72    C78     1.406   1_565 A
C73    H83     1.111   .     S
C73    N94     1.465   .     S
C73    H90     1.117   1_545 S
C74    H86     1.113   .     S
C74    C75     1.526   1_554 S
C74    H89     1.113   1_565 S
C74    N94     1.464   1_565 S
C75    H88     1.112   .     S
C75    C74     1.526   1_556 S
C75    C85     1.525   1_556 S
C75    H87     1.112   1_565 S
C76    C77     1.396   .     A
C76    H79     1.082   .     S
C77    H80     1.082   .     S
C77    C95     1.397   .     A
C78    C95     1.403   .     A
C78    C72     1.406   1_545 A
H81    C95     1.084   .     S
C84    H92     1.112   .     S
C84    N93     1.460   .     S
C84    C85     1.521   1_556 S
C84    H91     1.112   1_565 S
C85    C75     1.525   1_554 S
C85    C84     1.521   1_554 S
H87    C75     1.112   1_545 S
H89    C74     1.113   1_545 S
H90    C73     1.117   1_565 S
H91    C84     1.112   1_545 S
N94    C74     1.464   1_545 S
C96    C97     1.407   .     A
C96    C101    1.404   1_655 A
C96    C102    1.509   1_655 S
C97    C98     1.399   .     A
C97    H103    1.081   .     S
C98    C99     1.396   .     A
C98    H104    1.083   .     S
C99    C100    1.405   .     A
C99    H105    1.085   .     S
C100   C101    1.404   1_655 A
C100   C13     1.471   1_655 S
C101   H106    1.084   .     S
C101   C96     1.404   1_455 A
C101   C100    1.404   1_455 A
C102   H108    1.113   .     S
C102   C96     1.509   1_455 S
C102   H107    1.112   1_455 S
C102   N131    1.465   1_455 S
H107   C102    1.112   1_655 S
C109   C114    1.411   .     A
C109   C110    1.405   1_455 A
C109   C111    1.512   1_455 S
C110   H120    1.086   .     S
C110   C109    1.405   1_655 A
C110   C116    1.400   1_655 A
C111   H121    1.110   .     S
C111   H128    1.117   .     S
C111   N132    1.466   .     S
C111   C109    1.512   1_655 S
C112   H124    1.114   .     S
C112   H127    1.113   .     S
C112   N132    1.461   .     S
C112   C113    1.524   1_545 S
C113   H126    1.112   .     S
C113   C112    1.524   1_565 S
C113   C123    1.526   1_565 S
C113   H125    1.112   1_655 S
C114   C115    1.398   .     A
C114   H117    1.082   .     S
C115   H118    1.082   .     S
C115   C133    1.395   .     A
C116   C133    1.401   .     A
C116   C110    1.400   1_455 A
C116   C8      1.463   1_455 S
H119   C133    1.080   .     S
C122   H129    1.112   .     S
C122   C123    1.523   1_465 S
C122   H130    1.112   1_455 S
C122   N131    1.462   1_455 S
C123   C113    1.526   1_545 S
C123   C122    1.523   1_645 S
H125   C113    1.112   1_455 S
H130   C122    1.112   1_655 S
N131   C102    1.465   1_655 S
N131   C122    1.462   1_655 S
