data_pcu+N123+E70
_audit_creation_date              2023-11-17
_audit_creation_method            'Materials Studio'
_symmetry_space_group_name_H-M    'P1'
_symmetry_Int_Tables_number       1
_symmetry_cell_setting            triclinic
loop_
_symmetry_equiv_pos_as_xyz
  x,y,z
_cell_length_a                    12.5467
_cell_length_b                    10.6374
_cell_length_c                    9.4122
_cell_angle_alpha                 109.2835
_cell_angle_beta                  117.6791
_cell_angle_gamma                 90.5121
loop_
_atom_site_label
_atom_site_type_symbol
_atom_site_fract_x
_atom_site_fract_y
_atom_site_fract_z
_atom_site_U_iso_or_equiv
_atom_site_adp_type
_atom_site_occupancy
Ce0    Ce    0.15834   1.03164   1.11597   0.00000  Uiso   1.00
Ce1    Ce    0.87148  -0.02649  -0.05332   0.00000  Uiso   1.00
C2     C     0.94685   1.05955   0.76200   0.00000  Uiso   1.00
C3     C     0.27414   0.96644   0.92067   0.00000  Uiso   1.00
C4     C     1.01644   0.74872   0.07192   0.00000  Uiso   1.00
C5     C     0.09243   0.08841   0.36520   0.00000  Uiso   1.00
C6     C     0.62966  -0.06383  -0.16382   0.00000  Uiso   1.00
C7     C     0.03316   0.29263   1.09651   0.00000  Uiso   1.00
O8     O     0.86878   0.10323   0.79814   0.00000  Uiso   1.00
O9     O    -0.00293   0.95992   0.82908   0.00000  Uiso   1.00
O10    O     0.16055   0.96326   0.85632   0.00000  Uiso   1.00
O11    O     0.32851   1.00200   0.08250   0.00000  Uiso   1.00
O12    O     0.11475   0.80829   0.08948   0.00000  Uiso   1.00
O13    O     0.91324   0.78896   0.01913   0.00000  Uiso   1.00
O14    O     0.19579   1.07263   0.39698   0.00000  Uiso   1.00
O15    O     1.02693   0.09678   0.20634   0.00000  Uiso   1.00
O16    O     0.71069  -0.00035  -0.00534   0.00000  Uiso   1.00
O17    O     0.67157  -0.10919   0.73221   0.00000  Uiso   1.00
O18    O     0.92818   0.21243   1.03240   0.00000  Uiso   1.00
O19    O     0.13558   0.25029   1.12414   0.00000  Uiso   1.00
N20    N     0.04970   0.51822   1.07536   0.00000  Uiso   1.00
H21    H     0.95810   0.73982   0.31528   0.00000  Uiso   1.00
C22    C     1.02301   0.63972   0.13674   0.00000  Uiso   1.00
C23    C     0.98582   0.65044   0.25591   0.00000  Uiso   1.00
C24    C     1.03277   0.43813   0.15170   0.00000  Uiso   1.00
S25    S     0.98288   0.50767   0.29653   0.00000  Uiso   1.00
N26    N     0.46076   0.95647  -0.10164   0.00000  Uiso   1.00
H27    H     0.18360  -0.14770   0.55772   0.00000  Uiso   1.00
C28    C     0.33819  -0.06642   0.82040   0.00000  Uiso   1.00
C29    C     0.28189  -0.12238   0.64227   0.00000  Uiso   1.00
C30    C     0.49861  -0.08182   0.78096   0.00000  Uiso   1.00
S31    S     0.38447  -0.14837   0.56838   0.00000  Uiso   1.00
N32    N     0.04017   1.05593   0.57724   0.00000  Uiso   1.00
H33    H     0.99951   0.31535   0.45219   0.00000  Uiso   1.00
C34    C     1.05103   0.13101   0.49263   0.00000  Uiso   1.00
C35    C     1.00179   0.24590   0.51468   0.00000  Uiso   1.00
C36    C     0.98299   0.11716   0.66513   0.00000  Uiso   1.00
S37    S     0.94077   0.26622   0.64551   0.00000  Uiso   1.00
loop_
_geom_bond_atom_site_label_1
_geom_bond_atom_site_label_2
_geom_bond_distance
_geom_bond_site_symmetry_2
_ccdc_geom_bond_type
Ce0    O9      2.346   .     S
Ce0    O10     2.322   .     S
Ce0    O11     2.308   1_556 S
Ce0    O12     2.338   1_556 S
Ce0    O14     2.342   1_556 S
Ce0    O15     2.204   1_466 S
Ce0    O19     2.326   1_565 S
Ce1    O15     2.215   .     S
Ce1    O16     2.264   .     S
Ce1    O8      2.256   1_554 S
Ce1    O9      2.291   1_644 S
Ce1    O13     2.273   1_545 S
Ce1    O17     2.286   1_554 S
Ce1    O18     2.387   1_554 S
C2     O8      1.227   1_565 D
C2     O9      1.415   1_655 S
C2     C36     1.470   1_565 S
C3     O10     1.258   .     A
C3     O11     1.256   1_556 A
C3     C28     1.466   1_565 S
C4     O13     1.288   .     A
C4     C22     1.465   .     S
C4     O12     1.295   1_655 A
C5     O14     1.215   1_545 D
C5     O15     1.366   1_455 S
C5     C34     1.462   1_455 S
C6     O16     1.276   .     A
C6     O17     1.280   1_554 A
C6     C30     1.465   1_554 S
C7     O19     1.303   .     A
C7     O18     1.315   1_455 A
C7     C24     1.462   1_456 S
O8     Ce1     2.256   1_556 S
O8     C2      1.227   1_545 D
O9     Ce1     2.291   1_466 S
O9     C2      1.415   1_455 S
O11    Ce0     2.308   1_554 S
O11    C3      1.256   1_554 A
O12    Ce0     2.338   1_554 S
O12    C4      1.295   1_455 A
O13    Ce1     2.273   1_565 S
O14    Ce0     2.342   1_554 S
O14    C5      1.215   1_565 D
O15    Ce0     2.204   1_644 S
O15    C5      1.366   1_655 S
O17    Ce1     2.286   1_556 S
O17    C6      1.280   1_556 A
O18    Ce1     2.387   1_556 S
O18    C7      1.315   1_655 A
O19    Ce0     2.326   1_545 S
N20    C22     1.346   1_456 A
N20    C24     1.353   1_456 A
H21    C23     1.083   .     S
C22    C23     1.375   .     A
C22    N20     1.346   1_654 A
C23    S25     1.688   .     A
C24    S25     1.712   .     A
C24    N20     1.353   1_654 A
C24    C7      1.462   1_654 S
N26    C28     1.338   1_564 A
N26    C30     1.344   1_564 A
H27    C29     1.080   .     S
C28    C29     1.377   .     A
C28    N26     1.338   1_546 A
C28    C3      1.466   1_545 S
C29    S31     1.711   .     A
C30    S31     1.715   .     A
C30    N26     1.344   1_546 A
C30    C6      1.465   1_556 S
N32    C34     1.345   1_465 A
N32    C36     1.352   1_465 A
H33    C35     1.079   .     S
C34    C35     1.372   .     A
C34    N32     1.345   1_645 A
C34    C5      1.462   1_655 S
C35    S37     1.689   .     A
C36    S37     1.716   .     A
C36    N32     1.352   1_645 A
C36    C2      1.470   1_545 S
