data_pcu+N173+E1
_audit_creation_date              2023-11-17
_audit_creation_method            'Materials Studio'
_symmetry_space_group_name_H-M    'P1'
_symmetry_Int_Tables_number       1
_symmetry_cell_setting            triclinic
loop_
_symmetry_equiv_pos_as_xyz
  x,y,z
_cell_length_a                    18.5464
_cell_length_b                    23.0475
_cell_length_c                    19.3879
_cell_angle_alpha                 112.6789
_cell_angle_beta                  102.9350
_cell_angle_gamma                 47.2314
loop_
_atom_site_label
_atom_site_type_symbol
_atom_site_fract_x
_atom_site_fract_y
_atom_site_fract_z
_atom_site_U_iso_or_equiv
_atom_site_adp_type
_atom_site_occupancy
Gd0    Gd    0.06293   0.88104   0.95812   0.00000  Uiso   1.00
Gd1    Gd    0.91254   0.15075   0.05210   0.00000  Uiso   1.00
O2     O     0.79868   0.13789   0.01830   0.00000  Uiso   1.00
O3     O     0.93124   1.01360   0.98945   0.00000  Uiso   1.00
O4     O     0.97625   0.96961   0.88930   0.00000  Uiso   1.00
O5     O    -0.00873   0.06627   0.93595   0.00000  Uiso   1.00
O6     O     0.12549   0.77444   0.99266   0.00000  Uiso   1.00
O7     O     0.98104   0.84103   0.94739   0.00000  Uiso   1.00
O8     O     0.17658   0.89239   0.97193   0.00000  Uiso   1.00
C9     C     0.04930   0.78161   0.97412   0.00000  Uiso   1.00
O10    O     0.06840   0.03016   0.01543   0.00000  Uiso   1.00
O11    O     0.02842   0.94697   0.08298   0.00000  Uiso   1.00
C12    C     0.98723   0.01558   0.88036   0.00000  Uiso   1.00
O13    O     0.96042   0.08339   0.13358   0.00000  Uiso   1.00
O14    O     0.88490   0.23145   0.99654   0.00000  Uiso   1.00
O15    O    -0.00989   0.19845   0.08202   0.00000  Uiso   1.00
C16    C     0.83938   0.06291   0.00076   0.00000  Uiso   1.00
C17    C     0.94635   0.23799   0.03470   0.00000  Uiso   1.00
C18    C    -0.00340   1.01394   0.13835   0.00000  Uiso   1.00
C19    C     0.15685   0.96161   0.99459   0.00000  Uiso   1.00
C20    C     0.02638   0.61491   0.99305   0.00000  Uiso   1.00
C21    C     0.09688   0.61967   0.03227   0.00000  Uiso   1.00
C22    C     0.10459   0.67384   0.02612   0.00000  Uiso   1.00
C23    C     0.04056   0.72548   0.98205   0.00000  Uiso   1.00
C24    C    -0.03153   0.72234   0.94439   0.00000  Uiso   1.00
C25    C    -0.03791   0.66697   0.94928   0.00000  Uiso   1.00
C26    C     0.02002   0.55574   0.99761   0.00000  Uiso   1.00
C27    C     0.01187   0.50570   0.93237   0.00000  Uiso   1.00
C28    C     0.00484   0.45040   0.93647   0.00000  Uiso   1.00
C29    C     0.00514   0.44443   1.00610   0.00000  Uiso   1.00
C30    C     0.01385   0.49428   0.07128   0.00000  Uiso   1.00
C31    C     0.02169   0.54905   0.06709   0.00000  Uiso   1.00
C32    C    -0.00636   0.38821   1.01105   0.00000  Uiso   1.00
C33    C     0.04614   0.34382   0.06231   0.00000  Uiso   1.00
C34    C     0.03162   0.29421   0.06937   0.00000  Uiso   1.00
C35    C    -0.03524   0.28759   1.02517   0.00000  Uiso   1.00
C36    C    -0.08612   0.33030   0.97282   0.00000  Uiso   1.00
C37    C    -0.07201   0.38020   0.96589   0.00000  Uiso   1.00
H38    H     0.14726   0.58015   0.06634   0.00000  Uiso   1.00
H39    H     1.16023   0.67571   0.05617   0.00000  Uiso   1.00
H40    H    -0.08211   0.76195   0.91034   0.00000  Uiso   1.00
H41    H    -0.09369   0.66532   0.91925   0.00000  Uiso   1.00
H42    H     0.01207   0.50877   0.87808   0.00000  Uiso   1.00
H43    H    -0.00020   0.41190   0.88520   0.00000  Uiso   1.00
H44    H     0.01242   0.49225   0.12584   0.00000  Uiso   1.00
H45    H     0.02676   0.58759   0.11837   0.00000  Uiso   1.00
H46    H     0.09842   0.34745   0.09709   0.00000  Uiso   1.00
H47    H     1.07240   0.26132   0.10972   0.00000  Uiso   1.00
H48    H    -0.13789   0.32608   0.93782   0.00000  Uiso   1.00
H49    H    -0.11450   0.41429   0.92648   0.00000  Uiso   1.00
C50    C     0.38475  -0.03541  -0.00927   0.00000  Uiso   1.00
C51    C     0.40689  -0.10086   0.00556   0.00000  Uiso   1.00
C52    C     0.33268  -0.10199   0.00700   0.00000  Uiso   1.00
C53    C     0.23509  -0.03659   0.99554   0.00000  Uiso   1.00
C54    C     0.21297   0.02941   0.98194   0.00000  Uiso   1.00
C55    C     0.28728   0.02970   0.97901   0.00000  Uiso   1.00
C56    C     0.46258  -0.03427  -0.01274   0.00000  Uiso   1.00
C57    C     0.47449  -0.02481   0.92455   0.00000  Uiso   1.00
C58    C     0.54273  -0.01724   0.92320   0.00000  Uiso   1.00
C59    C     0.59858  -0.01639  -0.01442   0.00000  Uiso   1.00
C60    C     0.58816  -0.02827   0.04766   0.00000  Uiso   1.00
C61    C     0.52147  -0.03791   0.04811   0.00000  Uiso   1.00
C62    C     0.66369   0.00063  -0.01295   0.00000  Uiso   1.00
C63    C     0.74925  -0.03305   0.02773   0.00000  Uiso   1.00
C64    C     0.80663  -0.01297   0.03210   0.00000  Uiso   1.00
C65    C     0.78258   0.03774   0.99299   0.00000  Uiso   1.00
C66    C     0.69736   0.07190   0.95277   0.00000  Uiso   1.00
C67    C     0.63839   0.05383   0.94991   0.00000  Uiso   1.00
H68    H     0.48174  -0.15170   0.01470   0.00000  Uiso   1.00
H69    H     0.35159  -0.15393   0.01703   0.00000  Uiso   1.00
H70    H     0.13891   0.07953   0.97114   0.00000  Uiso   1.00
H71    H     0.26864   0.08095   0.96776   0.00000  Uiso   1.00
H72    H     0.43032  -0.02269   0.87667   0.00000  Uiso   1.00
H73    H     0.55041  -0.01074   0.87349   0.00000  Uiso   1.00
H74    H     0.62902  -0.02747   0.09701   0.00000  Uiso   1.00
H75    H     0.51306  -0.04501   0.09708   0.00000  Uiso   1.00
H76    H     0.77195  -0.07474   0.05656   0.00000  Uiso   1.00
H77    H     0.86980  -0.03695   0.06632   0.00000  Uiso   1.00
H78    H     0.67581   0.11340   0.92408   0.00000  Uiso   1.00
H79    H     0.57152   0.08347   0.92010   0.00000  Uiso   1.00
C80    C     0.00171   0.00921   0.35969   0.00000  Uiso   1.00
C81    C     0.98837   0.07326   0.34986   0.00000  Uiso   1.00
C82    C     0.98739   0.07448   0.27818   0.00000  Uiso   1.00
C83    C     1.00031   0.01136   0.21436   0.00000  Uiso   1.00
C84    C     0.01437   0.94691   0.22415   0.00000  Uiso   1.00
C85    C     0.01472   0.94604   0.29591   0.00000  Uiso   1.00
C86    C     0.00114   0.00879   0.43606   0.00000  Uiso   1.00
C87    C     0.06579   0.93332   0.45217   0.00000  Uiso   1.00
C88    C     0.06513   0.93307   0.52405   0.00000  Uiso   1.00
C89    C     0.00019   0.00833   0.58143   0.00000  Uiso   1.00
C90    C    -0.06435   0.08365   0.56539   0.00000  Uiso   1.00
C91    C    -0.06408   0.08388   0.49352   0.00000  Uiso   1.00
C92    C    -0.00087   0.00869   0.65785   0.00000  Uiso   1.00
C93    C     0.99324   0.06876   0.72082   0.00000  Uiso   1.00
C94    C     0.99046   0.07032   0.79289   0.00000  Uiso   1.00
C95    C    -0.00716   0.01215   0.80376   0.00000  Uiso   1.00
C96    C    -0.00023   0.95144   0.74069   0.00000  Uiso   1.00
C97    C     0.00284   0.94981   0.66851   0.00000  Uiso   1.00
H98    H     0.97961   0.12216   0.39760   0.00000  Uiso   1.00
H99    H     0.97711   0.12469   0.27272   0.00000  Uiso   1.00
H100   H     0.02345   0.89782   0.17635   0.00000  Uiso   1.00
H101   H     0.02356   0.89659   0.30151   0.00000  Uiso   1.00
H102   H     0.11789   0.87456   0.40943   0.00000  Uiso   1.00
H103   H     0.11668   0.87419   0.53515   0.00000  Uiso   1.00
H104   H    -0.11581   0.14239   0.60842   0.00000  Uiso   1.00
H105   H    -0.11613   0.14290   0.48271   0.00000  Uiso   1.00
H106   H     0.99169   0.11416   0.71430   0.00000  Uiso   1.00
H107   H     0.98588   0.11758   0.84017   0.00000  Uiso   1.00
H108   H     0.00201   0.90560   0.74700   0.00000  Uiso   1.00
H109   H     0.00647   0.90342   0.62087   0.00000  Uiso   1.00
loop_
_geom_bond_atom_site_label_1
_geom_bond_atom_site_label_2
_geom_bond_distance
_geom_bond_site_symmetry_2
_ccdc_geom_bond_type
Gd0    O6      2.209   .     S
Gd0    O8      2.242   .     S
Gd0    O3      2.183   1_455 S
Gd0    O4      2.284   1_455 S
Gd0    O7      2.194   1_455 S
Gd0    O11     2.262   1_556 S
Gd1    O2      2.249   .     S
Gd1    O13     2.255   .     S
Gd1    O5      2.286   1_654 S
Gd1    O10     2.252   1_655 S
Gd1    O14     2.210   1_554 S
Gd1    O15     2.213   1_655 S
O2     C16     1.250   .     A
O3     Gd0     2.183   1_655 S
O3     C16     1.260   1_566 A
O4     Gd0     2.284   1_655 S
O4     C12     1.282   1_565 A
O5     Gd1     2.286   1_456 S
O5     C12     1.282   1_455 A
O6     C9      1.286   .     A
O7     Gd0     2.194   1_655 S
O7     C9      1.283   1_655 A
O8     C19     1.269   .     A
C9     C23     1.474   .     S
C9     O7      1.283   1_455 A
O10    Gd1     2.252   1_455 S
O10    C19     1.279   1_544 A
O11    C18     1.285   .     A
O11    Gd0     2.262   1_554 S
C12    O4      1.282   1_545 A
C12    O5      1.282   1_655 A
C12    C95     1.480   1_655 S
O13    C18     1.284   1_645 A
O14    Gd1     2.210   1_556 S
O14    C17     1.280   1_556 A
O15    Gd1     2.213   1_455 S
O15    C17     1.280   1_455 A
C16    O3      1.260   1_544 A
C16    C65     1.470   1_554 S
C17    O14     1.280   1_554 A
C17    O15     1.280   1_655 A
C17    C35     1.476   1_654 S
C18    O13     1.284   1_465 A
C18    C83     1.482   1_465 S
C19    O10     1.279   1_566 A
C19    C53     1.475   1_565 S
C20    C25     1.404   .     A
C20    C26     1.482   .     S
C20    C21     1.409   1_556 A
C21    C22     1.399   .     A
C21    H38     1.082   .     S
C21    C20     1.409   1_554 A
C22    C23     1.403   1_554 A
C22    H39     1.085   1_455 S
C23    C24     1.407   .     A
C23    C22     1.403   1_556 A
C24    C25     1.398   .     A
C24    H40     1.083   .     S
C25    H41     1.085   .     S
C26    C27     1.407   .     A
C26    C31     1.405   1_556 A
C27    C28     1.399   .     A
C27    H42     1.083   .     S
C28    C29     1.407   .     A
C28    H43     1.084   .     S
C29    C32     1.488   .     S
C29    C30     1.409   1_556 A
C30    C31     1.398   .     A
C30    H44     1.084   .     S
C30    C29     1.409   1_554 A
C31    H45     1.085   .     S
C31    C26     1.405   1_554 A
C32    C37     1.409   .     A
C32    C33     1.407   1_556 A
C33    C34     1.398   .     A
C33    H46     1.084   .     S
C33    C32     1.407   1_554 A
C34    C35     1.406   1_554 A
C34    H47     1.083   1_455 S
C35    C36     1.403   .     A
C35    C34     1.406   1_556 A
C35    C17     1.476   1_456 S
C36    C37     1.397   .     A
C36    H48     1.084   .     S
C37    H49     1.084   .     S
H39    C22     1.085   1_655 S
H47    C34     1.083   1_655 S
C50    C51     1.403   .     A
C50    C56     1.478   .     S
C50    C55     1.402   1_554 A
C51    C52     1.401   .     A
C51    H68     1.083   .     S
C52    H69     1.083   .     S
C52    C53     1.404   1_554 A
C53    C54     1.402   .     A
C53    C52     1.404   1_556 A
C53    C19     1.475   1_545 S
C54    C55     1.397   .     A
C54    H70     1.081   .     S
C55    H71     1.083   .     S
C55    C50     1.402   1_556 A
C56    C61     1.402   .     A
C56    C57     1.402   1_554 A
C57    C58     1.397   .     A
C57    H72     1.084   .     S
C57    C56     1.402   1_556 A
C58    H73     1.083   .     S
C58    C59     1.409   1_556 A
C59    C60     1.411   .     A
C59    C62     1.494   .     S
C59    C58     1.409   1_554 A
C60    C61     1.400   .     A
C60    H74     1.082   .     S
C61    H75     1.083   .     S
C62    C63     1.408   .     A
C62    C67     1.411   1_554 A
C63    C64     1.397   .     A
C63    H76     1.083   .     S
C64    H77     1.083   .     S
C64    C65     1.402   1_554 A
C65    C66     1.399   .     A
C65    C64     1.402   1_556 A
C65    C16     1.470   1_556 S
C66    C67     1.395   .     A
C66    H78     1.084   .     S
C67    H79     1.083   .     S
C67    C62     1.411   1_556 A
C80    C86     1.487   .     S
C80    C81     1.406   1_455 A
C80    C85     1.405   1_545 A
C81    C82     1.397   .     A
C81    H98     1.081   .     S
C81    C80     1.406   1_655 A
C82    C83     1.406   .     A
C82    H99     1.083   .     S
C83    C84     1.407   1_645 A
C83    C18     1.482   1_645 S
C84    C85     1.398   .     A
C84    H100    1.082   .     S
C84    C83     1.407   1_465 A
C85    H101    1.082   .     S
C85    C80     1.405   1_565 A
C86    C91     1.405   .     A
C86    C87     1.407   1_545 A
C87    C88     1.399   .     A
C87    H102    1.082   .     S
C87    C86     1.407   1_565 A
C88    H103    1.083   .     S
C88    C89     1.404   1_565 A
C89    C90     1.404   .     A
C89    C92     1.483   .     S
C89    C88     1.404   1_545 A
C90    C91     1.397   .     A
C90    H104    1.082   .     S
C91    H105    1.083   .     S
C92    C93     1.403   1_455 A
C92    C97     1.404   1_545 A
C93    C94     1.395   .     A
C93    H106    1.082   .     S
C93    C92     1.403   1_655 A
C94    H107    1.083   .     S
C94    C95     1.406   1_655 A
C95    C94     1.406   1_455 A
C95    C96     1.406   1_545 A
C95    C12     1.480   1_455 S
C96    C97     1.398   .     A
C96    H108    1.082   .     S
C96    C95     1.406   1_565 A
C97    H109    1.081   .     S
C97    C92     1.404   1_565 A
