data_pcu+N505+E229
_audit_creation_date              2023-11-17
_audit_creation_method            'Materials Studio'
_symmetry_space_group_name_H-M    'P1'
_symmetry_Int_Tables_number       1
_symmetry_cell_setting            triclinic
loop_
_symmetry_equiv_pos_as_xyz
  x,y,z
_cell_length_a                    19.6564
_cell_length_b                    23.2765
_cell_length_c                    21.3605
_cell_angle_alpha                 89.7108
_cell_angle_beta                  119.3558
_cell_angle_gamma                 73.4726
loop_
_atom_site_label
_atom_site_type_symbol
_atom_site_fract_x
_atom_site_fract_y
_atom_site_fract_z
_atom_site_U_iso_or_equiv
_atom_site_adp_type
_atom_site_occupancy
Yb0    Yb    0.97800   0.07208  -0.04996   0.00000  Uiso   1.00
Yb1    Yb    0.01836   0.86784   1.02667   0.00000  Uiso   1.00
C2     C    -0.05121   0.80767   0.93584   0.00000  Uiso   1.00
O3     O     0.02676   0.14160   0.94487   0.00000  Uiso   1.00
O4     O     0.97650   0.09523   0.85253   0.00000  Uiso   1.00
O5     O     0.92746  -0.00154  -0.07679   0.00000  Uiso   1.00
O6     O     0.89657   0.94049   0.98059   0.00000  Uiso   1.00
O7     O     1.02580   0.13840   1.00991   0.00000  Uiso   1.00
O8     O     0.99721   0.07211   0.05716   0.00000  Uiso   1.00
O9     O     0.92456   0.90974   0.05286   0.00000  Uiso   1.00
O10    O     0.04997   0.87013   0.13859   0.00000  Uiso   1.00
C11    C     1.01433   0.13352   0.88096   0.00000  Uiso   1.00
O12    O     0.10001   0.00694  -0.00876   0.00000  Uiso   1.00
O13    O     0.06421   0.94236   1.03205   0.00000  Uiso   1.00
O14    O    -0.03045   0.79608   0.00310   0.00000  Uiso   1.00
C15    C     0.87897   0.99208  -0.05618   0.00000  Uiso   1.00
O16    O    -0.03638   0.85358   0.91742   0.00000  Uiso   1.00
C17    C     1.02132   0.11860   0.06386   0.00000  Uiso   1.00
C18    C    -0.02405   0.89812   0.12144   0.00000  Uiso   1.00
C19    C     0.11098  -0.04808   1.01081   0.00000  Uiso   1.00
C20    C     0.91134   0.66791   0.85503   0.00000  Uiso   1.00
C21    C     0.84951   0.69407   0.78244   0.00000  Uiso   1.00
C22    C     0.81980   0.75715  -0.23962   0.00000  Uiso   1.00
C23    C     0.85217   0.79456  -0.18975   0.00000  Uiso   1.00
C24    C     0.91226   0.76916   0.88328   0.00000  Uiso   1.00
C25    C     0.94090   0.70591   0.90552   0.00000  Uiso   1.00
C26    C     0.95054   0.59995   0.87754   0.00000  Uiso   1.00
H27    H     0.82617   0.66559   0.74262   0.00000  Uiso   1.00
H28    H     0.77290   0.77695  -0.29582   0.00000  Uiso   1.00
H29    H     0.82973   0.84326  -0.20792   0.00000  Uiso   1.00
H30    H    -0.01079   0.68591   0.96140   0.00000  Uiso   1.00
H31    H     0.92307   0.57679   0.83037   0.00000  Uiso   1.00
H32    H     1.01741   0.58842   0.89662   0.00000  Uiso   1.00
C33    C     0.03174   0.24309   0.17751   0.00000  Uiso   1.00
C34    C     0.01707   0.21269   0.11790   0.00000  Uiso   1.00
C35    C     0.00152   0.31156   0.16528   0.00000  Uiso   1.00
C36    C     0.99382   0.40169   0.10232   0.00000  Uiso   1.00
C37    C     1.01281   0.42306   1.04684   0.00000  Uiso   1.00
C38    C     0.07129   0.20894   0.24763   0.00000  Uiso   1.00
C39    C     0.09379   0.14548   1.25747   0.00000  Uiso   1.00
C40    C     0.03990   0.14902   0.12762   0.00000  Uiso   1.00
H41    H     0.08350   0.23139   0.29451   0.00000  Uiso   1.00
H42    H     0.12478   0.11937   1.31182   0.00000  Uiso   1.00
H43    H     0.09501   0.06636   1.20612   0.00000  Uiso   1.00
H44    H     0.98572   0.23881   0.06353   0.00000  Uiso   1.00
H45    H     0.02310   0.32853   0.21804   0.00000  Uiso   1.00
C46    C     0.98316   0.51331   0.96067   0.00000  Uiso   1.00
C47    C     0.97124   0.49180   0.02096   0.00000  Uiso   1.00
H48    H     0.92550   0.41568   0.07711   0.00000  Uiso   1.00
H49    H     0.08077   0.41138   1.07207   0.00000  Uiso   1.00
H50    H     0.98932   0.39934   0.99934   0.00000  Uiso   1.00
H51    H     0.01994   0.42314   0.15147   0.00000  Uiso   1.00
H52    H     0.93278   0.32698   0.13478   0.00000  Uiso   1.00
H53    H     0.05045   0.50286   0.98250   0.00000  Uiso   1.00
H54    H     0.95731   0.48888   0.91434   0.00000  Uiso   1.00
N55    N     0.94049   0.57889  -0.06369   0.00000  Uiso   1.00
N56    N     0.03078   0.33540   0.12289   0.00000  Uiso   1.00
C57    C     0.07742   0.11554   1.19766   0.00000  Uiso   1.00
C58    C     0.27057   0.87285   0.95999   0.00000  Uiso   1.00
C59    C     0.28014   0.81160   0.97612   0.00000  Uiso   1.00
C60    C     0.23558   0.79596   1.00406   0.00000  Uiso   1.00
C61    C     0.18192   0.84107   1.01686   0.00000  Uiso   1.00
C62    C     0.17145   0.90272   1.00173   0.00000  Uiso   1.00
C63    C     0.21664   0.91804   0.97325   0.00000  Uiso   1.00
C64    C     0.31382   0.89009   0.92481   0.00000  Uiso   1.00
H65    H     0.32037   0.77601   0.96536   0.00000  Uiso   1.00
H66    H     0.24203   0.74868   1.01510   0.00000  Uiso   1.00
H67    H     0.14641   0.82751   1.03561   0.00000  Uiso   1.00
H68    H     0.20836  -0.03469   0.95928   0.00000  Uiso   1.00
H69    H     0.35321   0.84853   0.91809   0.00000  Uiso   1.00
H70    H     0.26584   0.91711   0.86977   0.00000  Uiso   1.00
C71    C     0.70083   0.09103  -0.03835   0.00000  Uiso   1.00
C72    C     0.76420   0.04040  -0.03257   0.00000  Uiso   1.00
C73    C     0.65159   0.08416  -0.00449   0.00000  Uiso   1.00
C74    C     0.55641   0.03466  -0.01065   0.00000  Uiso   1.00
C75    C     0.50535   0.99559   0.94508   0.00000  Uiso   1.00
C76    C     0.68288   0.14716  -0.07745   0.00000  Uiso   1.00
C77    C     0.72558   0.15193  -0.11252   0.00000  Uiso   1.00
C78    C     0.80930   0.04513  -0.06584   0.00000  Uiso   1.00
H79    H     0.63479   0.18692  -0.08204   0.00000  Uiso   1.00
H80    H     0.71026   0.19513  -0.14387   0.00000  Uiso   1.00
H81    H     0.81934   0.10607   0.86422   0.00000  Uiso   1.00
H82    H     0.77789   0.99737  -0.00216   0.00000  Uiso   1.00
H83    H     0.60908   0.12931  -0.00864   0.00000  Uiso   1.00
C84    C     0.40683   0.94166   0.93389   0.00000  Uiso   1.00
C85    C     0.45727   0.98095  -0.02203   0.00000  Uiso   1.00
H86    H     0.59920   1.01085   0.04676   0.00000  Uiso   1.00
H87    H     0.46125   0.02056   0.88819   0.00000  Uiso   1.00
H88    H     0.54735   0.95248   0.94396   0.00000  Uiso   1.00
H89    H     0.51419   0.07887  -0.01209   0.00000  Uiso   1.00
H90    H     0.69471   0.06391   0.05419   0.00000  Uiso   1.00
H91    H     0.36078   0.96756   0.87786   0.00000  Uiso   1.00
H92    H     0.44890   0.89943   0.93118   0.00000  Uiso   1.00
N93    N     0.36474   0.92601   0.96867   0.00000  Uiso   1.00
N94    N     0.60371   0.04472  -0.04275   0.00000  Uiso   1.00
C95    C     0.78753   0.10112  -0.10774   0.00000  Uiso   1.00
C96    C     0.98702   0.94126   0.29625   0.00000  Uiso   1.00
C97    C     0.90360   0.95701   0.27594   0.00000  Uiso   1.00
C98    C     0.84465   0.95347   0.20600   0.00000  Uiso   1.00
C99    C     0.86815   0.93412   0.15556   0.00000  Uiso   1.00
C100   C     0.95146   0.91774   0.17507   0.00000  Uiso   1.00
C101   C     0.01073   0.92111   0.24576   0.00000  Uiso   1.00
C102   C     0.05068   0.94217   0.37337   0.00000  Uiso   1.00
H103   H     0.88493   0.97077   0.31515   0.00000  Uiso   1.00
H104   H     0.78052   0.96526   0.19090   0.00000  Uiso   1.00
H105   H     0.82165   0.93048   0.10218   0.00000  Uiso   1.00
H106   H     0.07527   0.90806   0.26160   0.00000  Uiso   1.00
H107   H     1.05138   0.90779   0.41028   0.00000  Uiso   1.00
H108   H     0.11334   0.92981   0.38053   0.00000  Uiso   1.00
C109   C     0.05066   0.19280   0.73810   0.00000  Uiso   1.00
C110   C     1.01809   0.16499   0.77053   0.00000  Uiso   1.00
C111   C     1.02242   0.19288   0.65880   0.00000  Uiso   1.00
C112   C     1.03337   0.13105   0.57236   0.00000  Uiso   1.00
C113   C     1.07788   1.06900   0.56379   0.00000  Uiso   1.00
C114   C     0.10924   0.22077   0.78017   0.00000  Uiso   1.00
C115   C     0.13448   0.22145   0.85353   0.00000  Uiso   1.00
C116   C     0.04418   0.16508   0.84475   0.00000  Uiso   1.00
H117   H     0.13566   0.24184   0.75638   0.00000  Uiso   1.00
H118   H     0.17981   0.24291   0.88576   0.00000  Uiso   1.00
H119   H     0.12414   0.19364   0.94328   0.00000  Uiso   1.00
H120   H     0.97327   0.14302   0.73820   0.00000  Uiso   1.00
H121   H     1.03786   0.22833   0.63801   0.00000  Uiso   1.00
C122   C     1.07615   1.00301   0.46906   0.00000  Uiso   1.00
C123   C     1.04177   0.06577   0.48287   0.00000  Uiso   1.00
H124   H     0.96569   0.13874   0.54251   0.00000  Uiso   1.00
H125   H     0.14496   1.06223   0.58968   0.00000  Uiso   1.00
H126   H     1.06953   1.03281   0.59086   0.00000  Uiso   1.00
H127   H     1.04543   0.16700   0.54863   0.00000  Uiso   1.00
H128   H     0.95408   0.20414   0.62736   0.00000  Uiso   1.00
H129   H     0.14247   0.99327   0.48730   0.00000  Uiso   1.00
H130   H     1.06925   0.96851   0.49974   0.00000  Uiso   1.00
N131   N     1.02881   1.00310   0.39069   0.00000  Uiso   1.00
N132   N     1.06288   0.13296   0.64959   0.00000  Uiso   1.00
C133   C     0.10242   0.19365   0.88583   0.00000  Uiso   1.00
loop_
_geom_bond_atom_site_label_1
_geom_bond_atom_site_label_2
_geom_bond_distance
_geom_bond_site_symmetry_2
_ccdc_geom_bond_type
Yb0    O5      2.161   .     S
Yb0    O8      2.129   .     S
Yb0    O3      2.129   1_654 S
Yb0    O4      2.133   1_554 S
Yb0    O7      2.137   1_554 S
Yb0    O12     2.162   1_655 S
Yb1    O13     2.150   .     S
Yb1    O16     2.113   .     S
Yb1    O6      2.220   1_455 S
Yb1    O9      2.158   1_456 S
Yb1    O10     2.160   1_556 S
Yb1    O14     2.100   1_556 S
C2     O16     1.291   .     A
C2     O14     1.289   1_556 A
C2     C24     1.471   1_455 S
O3     Yb0     2.129   1_456 S
O3     C11     1.289   1_455 A
O4     C11     1.287   .     A
O4     Yb0     2.133   1_556 S
O5     C15     1.271   1_545 A
O6     Yb1     2.220   1_655 S
O6     C15     1.291   1_556 A
O7     Yb0     2.137   1_556 S
O7     C17     1.290   1_556 A
O8     C17     1.282   .     A
O9     Yb1     2.158   1_654 S
O9     C18     1.276   1_655 A
O10    C18     1.269   .     A
O10    Yb1     2.160   1_554 S
C11    O3      1.289   1_655 A
C11    C116    1.472   1_655 S
O12    Yb0     2.162   1_455 S
O12    C19     1.269   1_554 A
O13    C19     1.275   1_565 A
O14    Yb1     2.100   1_554 S
O14    C2      1.289   1_554 A
C15    O5      1.271   1_565 A
C15    O6      1.291   1_554 A
C15    C78     1.484   1_565 S
C17    O7      1.290   1_554 A
C17    C40     1.469   1_655 S
C18    O9      1.276   1_455 A
C18    C100    1.474   1_455 S
C19    O12     1.269   1_556 A
C19    O13     1.275   1_545 A
C19    C62     1.489   1_545 S
C20    C21     1.405   .     A
C20    C25     1.404   .     A
C20    C26     1.504   .     S
C21    H27     1.082   .     S
C21    C22     1.398   1_556 A
C22    C23     1.399   .     A
C22    H28     1.082   .     S
C22    C21     1.398   1_554 A
C23    H29     1.083   .     S
C23    C24     1.402   1_554 A
C24    C25     1.403   .     A
C24    C23     1.402   1_556 A
C24    C2      1.471   1_655 S
C25    H30     1.084   1_655 S
C26    H31     1.111   .     S
C26    H32     1.113   .     S
C26    N55     1.465   1_556 S
H30    C25     1.084   1_455 S
C33    C34     1.404   .     A
C33    C35     1.505   .     S
C33    C38     1.405   .     A
C34    C40     1.403   .     A
C34    H44     1.084   1_455 S
C35    H45     1.112   .     S
C35    N56     1.465   .     S
C35    H52     1.113   1_455 S
C36    H48     1.113   .     S
C36    C37     1.525   1_554 S
C36    H51     1.113   1_655 S
C36    N56     1.464   1_655 S
C37    H50     1.113   .     S
C37    C36     1.525   1_556 S
C37    C47     1.529   1_556 S
C37    H49     1.111   1_655 S
C38    H41     1.084   .     S
C38    C39     1.399   1_554 A
C39    H42     1.085   .     S
C39    C57     1.398   .     A
C39    C38     1.399   1_556 A
C40    C57     1.403   1_554 A
C40    C17     1.469   1_455 S
H43    C57     1.083   .     S
H44    C34     1.084   1_655 S
C46    H54     1.113   .     S
C46    C47     1.523   1_556 S
C46    H53     1.112   1_655 S
C46    N55     1.463   1_556 S
C47    C37     1.529   1_554 S
C47    C46     1.523   1_554 S
H49    C37     1.111   1_455 S
H51    C36     1.113   1_455 S
H52    C35     1.113   1_655 S
H53    C46     1.112   1_455 S
N55    C26     1.465   1_554 S
N55    C46     1.463   1_554 S
N56    C36     1.464   1_455 S
C57    C40     1.403   1_556 A
C58    C59     1.402   .     A
C58    C63     1.405   .     A
C58    C64     1.505   .     S
C59    C60     1.396   .     A
C59    H65     1.082   .     S
C60    C61     1.395   .     A
C60    H66     1.082   .     S
C61    C62     1.403   .     A
C61    H67     1.070   .     S
C62    C63     1.412   .     A
C62    C19     1.489   1_565 S
C63    H68     1.083   1_565 S
C64    H69     1.114   .     S
C64    H70     1.111   .     S
C64    N93     1.464   .     S
H68    C63     1.083   1_545 S
C71    C72     1.403   .     A
C71    C73     1.503   .     S
C71    C76     1.402   .     A
C72    C78     1.406   .     A
C72    H82     1.080   1_545 S
C73    H83     1.112   .     S
C73    H90     1.112   .     S
C73    N94     1.463   .     S
C74    H89     1.112   .     S
C74    N94     1.462   .     S
C74    C75     1.525   1_544 S
C74    H86     1.111   1_545 S
C75    H88     1.112   .     S
C75    C74     1.525   1_566 S
C75    C85     1.528   1_556 S
C75    H87     1.113   1_565 S
C76    C77     1.395   .     A
C76    H79     1.082   .     S
C77    H80     1.083   .     S
C77    C95     1.396   .     A
C78    C95     1.406   .     A
C78    C15     1.484   1_545 S
H81    C95     1.082   1_556 S
H82    C72     1.080   1_565 S
C84    H91     1.111   .     S
C84    H92     1.113   .     S
C84    N93     1.463   .     S
C84    C85     1.522   1_556 S
C85    C75     1.528   1_554 S
C85    C84     1.522   1_554 S
H86    C74     1.111   1_565 S
H87    C75     1.113   1_545 S
C95    H81     1.082   1_554 S
C96    C97     1.404   .     A
C96    C101    1.405   1_655 A
C96    C102    1.508   1_655 S
C97    C98     1.393   .     A
C97    H103    1.084   .     S
C98    C99     1.397   .     A
C98    H104    1.083   .     S
C99    C100    1.405   .     A
C99    H105    1.080   .     S
C100   C101    1.404   1_655 A
C100   C18     1.474   1_655 S
C101   H106    1.084   .     S
C101   C96     1.405   1_455 A
C101   C100    1.404   1_455 A
C102   H108    1.112   .     S
C102   C96     1.508   1_455 S
C102   H107    1.113   1_455 S
C102   N131    1.465   1_455 S
H107   C102    1.113   1_655 S
C109   C114    1.405   .     A
C109   C110    1.405   1_455 A
C109   C111    1.502   1_455 S
C110   H120    1.085   .     S
C110   C109    1.405   1_655 A
C110   C116    1.407   1_655 A
C111   H121    1.114   .     S
C111   H128    1.112   .     S
C111   N132    1.463   .     S
C111   C109    1.502   1_655 S
C112   H124    1.114   .     S
C112   H127    1.113   .     S
C112   N132    1.462   .     S
C112   C113    1.525   1_545 S
C113   H126    1.113   .     S
C113   C112    1.525   1_565 S
C113   C123    1.525   1_565 S
C113   H125    1.111   1_655 S
C114   C115    1.394   .     A
C114   H117    1.082   .     S
C115   H118    1.083   .     S
C115   C133    1.395   .     A
C116   C133    1.406   .     A
C116   C110    1.407   1_455 A
C116   C11     1.472   1_455 S
H119   C133    1.084   .     S
C122   H130    1.112   .     S
C122   N131    1.463   .     S
C122   C123    1.522   1_565 S
C122   H129    1.112   1_655 S
C123   C113    1.525   1_545 S
C123   C122    1.522   1_545 S
H125   C113    1.111   1_455 S
H129   C122    1.112   1_455 S
N131   C102    1.465   1_655 S
