data_pcu+N155+E28
_audit_creation_date              2023-11-17
_audit_creation_method            'Materials Studio'
_symmetry_space_group_name_H-M    'P1'
_symmetry_Int_Tables_number       1
_symmetry_cell_setting            triclinic
loop_
_symmetry_equiv_pos_as_xyz
  x,y,z
_cell_length_a                    19.0500
_cell_length_b                    19.8955
_cell_length_c                    22.3414
_cell_angle_alpha                 88.7211
_cell_angle_beta                  92.4833
_cell_angle_gamma                 84.8414
loop_
_atom_site_label
_atom_site_type_symbol
_atom_site_fract_x
_atom_site_fract_y
_atom_site_fract_z
_atom_site_U_iso_or_equiv
_atom_site_adp_type
_atom_site_occupancy
C0     C     0.00191  -0.00297   0.18104   0.00000  Uiso   1.00
Ho1    Ho    0.00080  -0.00263   0.06518   0.00000  Uiso   1.00
C2     C     0.99797   1.00003   0.81959   0.00000  Uiso   1.00
Ho3    Ho    1.00109   0.99945   0.93559   0.00000  Uiso   1.00
O4     O     0.05843  -0.01193   0.15215   0.00000  Uiso   1.00
O5     O     0.94531   0.00551   0.14781   0.00000  Uiso   1.00
O6     O     0.11010  -0.01662   0.10118   0.00000  Uiso   1.00
O7     O     0.08535   0.98860   1.00420   0.00000  Uiso   1.00
C8     C     0.13591  -0.01808   1.05168   0.00000  Uiso   1.00
C9     C     0.86571   1.01476  -0.04866   0.00000  Uiso   1.00
O10    O    -0.00294   0.88810   0.05272   0.00000  Uiso   1.00
O11    O     0.99578   0.89027   0.94964   0.00000  Uiso   1.00
O12    O     0.94197   1.00890   0.84925   0.00000  Uiso   1.00
O13    O     0.05513   0.99181   0.85215   0.00000  Uiso   1.00
O14    O     0.89009   1.01340   0.90128   0.00000  Uiso   1.00
O15    O     0.91885   0.00791  -0.00383   0.00000  Uiso   1.00
O16    O     1.00453   0.10868   0.94790   0.00000  Uiso   1.00
O17    O     0.00632   0.10662   0.05096   0.00000  Uiso   1.00
C18    C     1.00665   0.13828   0.99936   0.00000  Uiso   1.00
C19    C    -0.00473   0.85855   0.00117   0.00000  Uiso   1.00
C20    C     0.99523   0.64168   0.00087   0.00000  Uiso   1.00
C21    C     0.99793   0.67897   0.94696   0.00000  Uiso   1.00
C22    C     0.99729   0.74917   0.94698   0.00000  Uiso   1.00
C23    C     0.99370   0.78405   0.00104   0.00000  Uiso   1.00
C24    C    -0.00997   0.74690   0.05488   0.00000  Uiso   1.00
C25    C    -0.00905   0.67650   0.05483   0.00000  Uiso   1.00
C26    C     0.99798   0.56694   0.00064   0.00000  Uiso   1.00
N27    N     0.99881   0.53020   0.05270   0.00000  Uiso   1.00
N28    N     1.00199   0.46312   0.05229   0.00000  Uiso   1.00
C29    C     1.00457   0.42990  -0.00008   0.00000  Uiso   1.00
N30    N     1.00385   0.46666   0.94785   0.00000  Uiso   1.00
N31    N     1.00071   0.53371   0.94827   0.00000  Uiso   1.00
C32    C     1.00687   0.35517  -0.00033   0.00000  Uiso   1.00
C33    C     1.00628   0.32084   0.94546   0.00000  Uiso   1.00
C34    C     1.00695   0.25042   0.94533   0.00000  Uiso   1.00
C35    C     1.00838   0.21273  -0.00064   0.00000  Uiso   1.00
C36    C     0.01012   0.24706   0.05357   0.00000  Uiso   1.00
C37    C     0.00910   0.31740   0.05370   0.00000  Uiso   1.00
H38    H     1.00147   0.65389   0.90452   0.00000  Uiso   1.00
H39    H     1.00063   0.77594   0.90458   0.00000  Uiso   1.00
H40    H    -0.01297   0.77215   0.09724   0.00000  Uiso   1.00
H41    H    -0.01111   0.64940   0.09715   0.00000  Uiso   1.00
H42    H     1.00442   0.34838   0.90296   0.00000  Uiso   1.00
H43    H     1.00561   0.22564   0.90271   0.00000  Uiso   1.00
H44    H     0.01152   0.21987   0.09609   0.00000  Uiso   1.00
H45    H     0.00959   0.34217   0.09629   0.00000  Uiso   1.00
C46    C     0.35726   0.98348   1.02396   0.00000  Uiso   1.00
C47    C     0.30813   0.98309   0.97514   0.00000  Uiso   1.00
C48    C     0.23648   0.98062   0.98453   0.00000  Uiso   1.00
C49    C     0.21228   0.97826   1.04286   0.00000  Uiso   1.00
C50    C     0.26124  -0.02313   0.09185   0.00000  Uiso   1.00
C51    C     0.33310  -0.02060   0.08246   0.00000  Uiso   1.00
C52    C     0.43273   0.99033   1.01369   0.00000  Uiso   1.00
N53    N     0.48131  -0.01160   0.06026   0.00000  Uiso   1.00
N54    N     0.54871  -0.00410   0.05096   0.00000  Uiso   1.00
C55    C     0.57024   1.00589   0.99465   0.00000  Uiso   1.00
N56    N     0.52168   1.00786   0.94814   0.00000  Uiso   1.00
N57    N     0.45435   1.00027   0.95741   0.00000  Uiso   1.00
C58    C     0.64561   1.01263   0.98379   0.00000  Uiso   1.00
C59    C     0.66814   1.01888   0.92493   0.00000  Uiso   1.00
C60    C     0.73962   1.02148   0.91433   0.00000  Uiso   1.00
C61    C     0.78985   1.01820   0.96231   0.00000  Uiso   1.00
C62    C     0.76744   0.01422   0.02112   0.00000  Uiso   1.00
C63    C     0.69605   0.01122   0.03185   0.00000  Uiso   1.00
H64    H     0.32488   0.98600   0.92953   0.00000  Uiso   1.00
H65    H     0.19978   0.98215   0.94596   0.00000  Uiso   1.00
H66    H     0.24382  -0.02481   0.13734   0.00000  Uiso   1.00
H67    H     0.36946  -0.02071   0.12107   0.00000  Uiso   1.00
H68    H     0.63074   1.02056   0.88682   0.00000  Uiso   1.00
H69    H     0.75580   1.02463   0.86856   0.00000  Uiso   1.00
H70    H     0.80532   0.01200   0.05884   0.00000  Uiso   1.00
H71    H     0.68056   0.00671   0.07775   0.00000  Uiso   1.00
C72    C     0.00008  -0.00156   0.37306   0.00000  Uiso   1.00
C73    C     0.94937   0.03944   0.33766   0.00000  Uiso   1.00
C74    C     0.94973   0.03846   0.27512   0.00000  Uiso   1.00
C75    C     0.00202  -0.00190   0.24684   0.00000  Uiso   1.00
C76    C     0.05372   0.95821   0.28188   0.00000  Uiso   1.00
C77    C     0.05204   0.95756   0.34440   0.00000  Uiso   1.00
C78    C    -0.00116  -0.00178   0.43935   0.00000  Uiso   1.00
N79    N     0.04047   0.95145   0.47321   0.00000  Uiso   1.00
N80    N     0.03943   0.95099   0.53279   0.00000  Uiso   1.00
C81    C    -0.00332  -0.00262   0.56108   0.00000  Uiso   1.00
N82    N    -0.04491   0.04420   0.52725   0.00000  Uiso   1.00
N83    N    -0.04384   0.04467   0.46763   0.00000  Uiso   1.00
C84    C    -0.00393  -0.00280   0.62741   0.00000  Uiso   1.00
C85    C     0.94404   0.03743   0.65652   0.00000  Uiso   1.00
C86    C     0.94393   0.03753   0.71917   0.00000  Uiso   1.00
C87    C    -0.00322  -0.00131   0.75373   0.00000  Uiso   1.00
C88    C     0.04883   0.95870   0.72494   0.00000  Uiso   1.00
C89    C     0.04810   0.95734   0.66237   0.00000  Uiso   1.00
H90    H     0.90889   0.07175   0.35818   0.00000  Uiso   1.00
H91    H     0.90980   0.07017   0.24870   0.00000  Uiso   1.00
H92    H     0.09441   0.92647   0.26082   0.00000  Uiso   1.00
H93    H     0.09161   0.92501   0.37021   0.00000  Uiso   1.00
H94    H     0.90334   0.06904   0.63100   0.00000  Uiso   1.00
H95    H     0.90356   0.06921   0.74050   0.00000  Uiso   1.00
H96    H     0.08967   0.92769   0.75082   0.00000  Uiso   1.00
H97    H     0.08877   0.92570   0.64144   0.00000  Uiso   1.00
loop_
_geom_bond_atom_site_label_1
_geom_bond_atom_site_label_2
_geom_bond_distance
_geom_bond_site_symmetry_2
_ccdc_geom_bond_type
C0     O4      1.280   .     A
C0     C75     1.471   .     S
C0     O5      1.279   1_455 A
Ho1    O4      2.186   .     S
Ho1    O6      2.191   .     S
Ho1    O17     2.202   .     S
Ho1    O5      2.169   1_455 S
Ho1    O7      2.152   1_544 S
Ho1    O10     2.205   1_545 S
Ho1    O15     2.139   1_455 S
C2     O12     1.281   .     A
C2     O13     1.279   1_655 A
C2     C87     1.472   1_665 S
Ho3    O11     2.200   .     S
Ho3    O12     2.187   .     S
Ho3    O14     2.209   .     S
Ho3    O7      2.164   1_655 S
Ho3    O13     2.170   1_655 S
Ho3    O15     2.112   1_566 S
Ho3    O16     2.203   1_565 S
O5     C0      1.279   1_655 A
O5     Ho1     2.169   1_655 S
O6     C8      1.229   1_554 D
O7     Ho1     2.152   1_566 S
O7     Ho3     2.164   1_455 S
O7     C8      1.397   1_565 S
C8     O6      1.229   1_556 D
C8     O7      1.397   1_545 S
C8     C49     1.472   1_545 S
C9     O14     1.229   1_554 D
C9     O15     1.388   1_565 S
C9     C61     1.472   1_554 S
O10    C19     1.305   .     A
O10    Ho1     2.205   1_565 S
O11    C19     1.301   1_656 A
O13    C2      1.279   1_455 A
O13    Ho3     2.170   1_455 S
O14    C9      1.229   1_556 D
O15    Ho1     2.139   1_655 S
O15    Ho3     2.112   1_544 S
O15    C9      1.388   1_545 S
O16    C18     1.304   .     A
O16    Ho3     2.203   1_545 S
O17    C18     1.302   1_454 A
C18    O17     1.302   1_656 A
C18    C35     1.485   1_556 S
C19    O11     1.301   1_454 A
C19    C23     1.485   1_455 S
C20    C26     1.483   .     S
C20    C21     1.406   1_554 A
C20    C25     1.405   1_655 A
C21    C22     1.396   .     A
C21    H38     1.083   .     S
C21    C20     1.406   1_556 A
C22    H39     1.083   .     S
C22    C23     1.408   1_556 A
C23    C22     1.408   1_554 A
C23    C24     1.405   1_655 A
C23    C19     1.485   1_655 S
C24    C25     1.399   .     A
C24    H40     1.083   .     S
C24    C23     1.405   1_455 A
C25    H41     1.082   .     S
C25    C20     1.405   1_455 A
C26    N27     1.359   .     A
C26    N31     1.357   1_554 A
N27    N28     1.331   .     A
N28    C29     1.357   .     A
C29    C32     1.484   .     S
C29    N30     1.359   1_554 A
N30    N31     1.330   .     A
N30    C29     1.359   1_556 A
N31    C26     1.357   1_556 A
C32    C33     1.404   1_554 A
C32    C37     1.405   1_655 A
C33    C34     1.400   .     A
C33    H42     1.083   .     S
C33    C32     1.404   1_556 A
C34    H43     1.082   .     S
C34    C35     1.405   1_556 A
C35    C34     1.405   1_554 A
C35    C36     1.404   1_655 A
C35    C18     1.485   1_554 S
C36    C37     1.398   .     A
C36    H44     1.081   .     S
C36    C35     1.404   1_455 A
C37    H45     1.081   .     S
C37    C32     1.405   1_455 A
C46    C47     1.407   .     A
C46    C52     1.483   .     S
C46    C51     1.407   1_566 A
C47    C48     1.395   .     A
C47    H64     1.083   .     S
C48    C49     1.402   .     A
C48    H65     1.084   .     S
C49    C50     1.405   1_566 A
C49    C8      1.472   1_565 S
C50    C51     1.399   .     A
C50    H66     1.084   .     S
C50    C49     1.405   1_544 A
C51    H67     1.082   .     S
C51    C46     1.407   1_544 A
C52    N57     1.356   .     A
C52    N53     1.360   1_566 A
N53    N54     1.331   .     A
N53    C52     1.360   1_544 A
N54    C55     1.356   1_544 A
C55    N56     1.359   .     A
C55    C58     1.484   .     S
C55    N54     1.356   1_566 A
N56    N57     1.329   .     A
C58    C59     1.407   .     A
C58    C63     1.408   1_566 A
C59    C60     1.397   .     A
C59    H68     1.084   .     S
C60    C61     1.402   .     A
C60    H69     1.083   .     S
C61    C62     1.402   1_566 A
C61    C9      1.472   1_556 S
C62    C63     1.397   .     A
C62    H70     1.083   .     S
C62    C61     1.402   1_544 A
C63    H71     1.083   .     S
C63    C58     1.408   1_544 A
C72    C78     1.482   .     S
C72    C73     1.410   1_455 A
C72    C77     1.409   1_545 A
C73    C74     1.398   .     A
C73    H90     1.083   .     S
C73    C72     1.410   1_655 A
C74    H91     1.088   .     S
C74    C75     1.403   1_655 A
C75    C74     1.403   1_455 A
C75    C76     1.406   1_545 A
C76    C77     1.398   .     A
C76    H92     1.085   .     S
C76    C75     1.406   1_565 A
C77    H93     1.085   .     S
C77    C72     1.409   1_565 A
C78    N83     1.360   .     A
C78    N79     1.361   1_545 A
N79    N80     1.332   .     A
N79    C78     1.361   1_565 A
N80    C81     1.360   1_565 A
C81    N82     1.360   .     A
C81    C84     1.482   .     S
C81    N80     1.360   1_545 A
N82    N83     1.333   .     A
C84    C85     1.408   1_455 A
C84    C89     1.409   1_545 A
C85    C86     1.400   .     A
C85    H94     1.086   .     S
C85    C84     1.408   1_655 A
C86    H95     1.084   .     S
C86    C87     1.405   1_655 A
C87    C86     1.405   1_455 A
C87    C88     1.402   1_545 A
C87    C2      1.472   1_445 S
C88    C89     1.398   .     A
C88    H96     1.086   .     S
C88    C87     1.402   1_565 A
C89    H97     1.083   .     S
C89    C84     1.409   1_565 A
