data_pcu+N139+E161
_audit_creation_date              2023-11-17
_audit_creation_method            'Materials Studio'
_symmetry_space_group_name_H-M    'P1'
_symmetry_Int_Tables_number       1
_symmetry_cell_setting            triclinic
loop_
_symmetry_equiv_pos_as_xyz
  x,y,z
_cell_length_a                    25.1074
_cell_length_b                    21.9579
_cell_length_c                    27.7518
_cell_angle_alpha                 90.1546
_cell_angle_beta                  95.9127
_cell_angle_gamma                 44.9938
loop_
_atom_site_label
_atom_site_type_symbol
_atom_site_fract_x
_atom_site_fract_y
_atom_site_fract_z
_atom_site_U_iso_or_equiv
_atom_site_adp_type
_atom_site_occupancy
C0     C     0.02765   0.00889   0.16825   0.00000  Uiso   1.00
Sm1    Sm    0.96213  -0.02013   0.91768   0.00000  Uiso   1.00
Sm2    Sm    0.04057   1.00272   0.07483   0.00000  Uiso   1.00
C3     C     0.96857   0.10057  -0.03285   0.00000  Uiso   1.00
C4     C     0.13355   1.01220   0.05140   0.00000  Uiso   1.00
O5     O     0.03465   0.92457   0.85829   0.00000  Uiso   1.00
O6     O     0.91236   0.02536   0.83983   0.00000  Uiso   1.00
O7     O     0.03768   0.90229   0.06844   0.00000  Uiso   1.00
O8     O     1.03685   0.91591   0.99051   0.00000  Uiso   1.00
O9     O     0.86220   0.03071  -0.04837   0.00000  Uiso   1.00
O10    O     0.92550   0.91246   0.91645   0.00000  Uiso   1.00
O11    O     0.96972   0.05817   0.13506   0.00000  Uiso   1.00
O12    O     0.09204   0.95638   0.15253   0.00000  Uiso   1.00
O13    O     0.96433   0.08083   0.92475   0.00000  Uiso   1.00
O14    O    -0.03642   0.06886   0.00264   0.00000  Uiso   1.00
O15    O     0.13953   0.95136   1.03945   0.00000  Uiso   1.00
O16    O     0.07810   0.06917   0.07480   0.00000  Uiso   1.00
C17    C     0.97723   0.97371   0.82473   0.00000  Uiso   1.00
C18    C     0.03208   0.88387   1.02591   0.00000  Uiso   1.00
C19    C     0.86900  -0.03045   0.93909   0.00000  Uiso   1.00
H20    H     0.91022   0.21878   0.03197   0.00000  Uiso   1.00
C21    C     1.02052   0.82715   1.01877   0.00000  Uiso   1.00
C22    C     0.05560   0.76796   0.98372   0.00000  Uiso   1.00
C23    C     0.04814   0.71066   0.97808   0.00000  Uiso   1.00
C24    C     1.00560   0.71202   1.00846   0.00000  Uiso   1.00
C25    C     0.96888   0.77273   0.04318   0.00000  Uiso   1.00
C26    C     0.97741   0.82918   0.04840   0.00000  Uiso   1.00
C27    C     0.08621   0.64772   0.94009   0.00000  Uiso   1.00
C28    C     0.92087   0.77733   0.07460   0.00000  Uiso   1.00
C29    C     0.05960   0.56955   0.03201   0.00000  Uiso   1.00
C30    C     0.05910   0.50605   0.02909   0.00000  Uiso   1.00
C31    C     0.99928   0.52525   0.99881   0.00000  Uiso   1.00
C32    C     0.94118   0.60711   0.97207   0.00000  Uiso   1.00
C33    C     0.94417   0.66847   0.97606   0.00000  Uiso   1.00
C34    C     0.11680   0.42412   0.05556   0.00000  Uiso   1.00
C35    C     0.11524   0.36197   0.05195   0.00000  Uiso   1.00
C36    C     0.05586   0.38044   0.02184   0.00000  Uiso   1.00
C37    C    -0.00229   0.46231   0.99513   0.00000  Uiso   1.00
C38    C     0.93809   0.48125   0.96470   0.00000  Uiso   1.00
C39    C     0.88018   0.56332   0.93841   0.00000  Uiso   1.00
C40    C     0.88184   0.62547   0.94202   0.00000  Uiso   1.00
C41    C     0.05292   0.31905   0.01787   0.00000  Uiso   1.00
C42    C     0.93799   0.41742   0.96154   0.00000  Uiso   1.00
C43    C    -0.00738   0.27457   0.98471   0.00000  Uiso   1.00
C44    C     0.07534   0.21018   0.91645   0.00000  Uiso   1.00
C45    C     0.02143   0.15735   0.94438   0.00000  Uiso   1.00
C46    C     0.91208   0.33786   0.05305   0.00000  Uiso   1.00
C47    C     0.94373   0.21735   0.00934   0.00000  Uiso   1.00
C48    C     0.95043   0.27520   0.01502   0.00000  Uiso   1.00
C49    C     0.02906   0.21447   0.94951   0.00000  Uiso   1.00
C50    C    -0.02069   0.15809  -0.02570   0.00000  Uiso   1.00
H51    H     0.87069   0.40511   0.03549   0.00000  Uiso   1.00
N52    N     1.00281   0.64877   1.00558   0.00000  Uiso   1.00
N53    N    -0.00527   0.33835   0.98806   0.00000  Uiso   1.00
H54    H     0.95529   0.32673   0.07937   0.00000  Uiso   1.00
H55    H     0.08910   0.76638   0.96095   0.00000  Uiso   1.00
H56    H     0.95001   0.87535   0.07535   0.00000  Uiso   1.00
H57    H     0.11662   0.65558   0.91898   0.00000  Uiso   1.00
H58    H     0.12837   0.58030   0.95777   0.00000  Uiso   1.00
H59    H     0.04279   0.65863   0.91421   0.00000  Uiso   1.00
H60    H     0.95566   0.71428   0.09628   0.00000  Uiso   1.00
H61    H     0.89647   0.82783   0.10013   0.00000  Uiso   1.00
H62    H     0.87292   0.79341   0.05123   0.00000  Uiso   1.00
O63    O     0.88844   0.74824   0.94985   0.00000  Uiso   1.00
O64    O     0.11747   0.55194   0.06138   0.00000  Uiso   1.00
H65    H     0.16332   0.40776   0.07917   0.00000  Uiso   1.00
H66    H     0.83628   0.68810   0.92132   0.00000  Uiso   1.00
H67    H     0.16070   0.29953   0.07282   0.00000  Uiso   1.00
H68    H     0.04919   0.22449   0.87800   0.00000  Uiso   1.00
H69    H     0.07925   0.25672   0.92384   0.00000  Uiso   1.00
H70    H     0.04890   0.11170   0.91715   0.00000  Uiso   1.00
H71    H     0.83352   0.57971   0.91496   0.00000  Uiso   1.00
H72    H     0.88105   0.33041   0.07364   0.00000  Uiso   1.00
O73    O     0.88067   0.43446   0.93185   0.00000  Uiso   1.00
O74    O     0.10826   0.23965   0.04433   0.00000  Uiso   1.00
H75    H     0.13415   0.14415   0.92108   0.00000  Uiso   1.00
H76    H     0.80494   0.00912   0.02082   0.00000  Uiso   1.00
C77    C     0.18721   1.01550   0.03942   0.00000  Uiso   1.00
C78    C     0.21955   0.98481   0.99639   0.00000  Uiso   1.00
C79    C     0.27332   0.98420   0.98561   0.00000  Uiso   1.00
C80    C     0.29653   1.01264   1.01916   0.00000  Uiso   1.00
C81    C     0.26398   0.04356   0.06257   0.00000  Uiso   1.00
C82    C     0.20883   0.04575   0.07200   0.00000  Uiso   1.00
C83    C     0.30533   0.95380   0.93836   0.00000  Uiso   1.00
C84    C     0.28890   0.07264   0.09930   0.00000  Uiso   1.00
C85    C     0.33733   0.07818   0.99269   0.00000  Uiso   1.00
C86    C     0.39486   0.07342   0.98566   0.00000  Uiso   1.00
C87    C     0.47160   0.99313   0.99590   0.00000  Uiso   1.00
C88    C     0.48957   0.91945   0.01315   0.00000  Uiso   1.00
C89    C     0.43027   0.92773   0.02059   0.00000  Uiso   1.00
C90    C     0.37766   0.14671   0.96893   0.00000  Uiso   1.00
C91    C     0.43591   0.14028   0.96235   0.00000  Uiso   1.00
C92    C     0.51254   0.06043   0.97197   0.00000  Uiso   1.00
C93    C     0.53048   0.98659   0.98891   0.00000  Uiso   1.00
C94    C     0.60720   0.90626  -0.00108   0.00000  Uiso   1.00
C95    C     0.62432   0.83300   0.01546   0.00000  Uiso   1.00
C96    C     0.56618   0.83953   0.02264   0.00000  Uiso   1.00
C97    C     0.57191   0.05242   0.96505   0.00000  Uiso   1.00
C98    C     0.66479   0.90147  -0.00808   0.00000  Uiso   1.00
C99    C     0.70565   0.96779   0.96725   0.00000  Uiso   1.00
C100   C     0.70910   0.91752   0.88422   0.00000  Uiso   1.00
C101   C     0.79093   0.94093   0.91465   0.00000  Uiso   1.00
C102   C     0.70122   0.01633   0.05103   0.00000  Uiso   1.00
C103   C     0.78570  -0.00974  -0.00622   0.00000  Uiso   1.00
C104   C     0.73177  -0.00961   0.00322   0.00000  Uiso   1.00
C105   C     0.73583   0.94244   0.92283   0.00000  Uiso   1.00
C106   C     0.81526  -0.03428   0.94965   0.00000  Uiso   1.00
H107   H     0.70277  -0.03117   0.06676   0.00000  Uiso   1.00
N108   N     0.35593   1.00613   1.01030   0.00000  Uiso   1.00
N109   N     0.64619   0.97388   0.97503   0.00000  Uiso   1.00
H110   H     0.64155   0.08102   0.04513   0.00000  Uiso   1.00
H111   H     0.20253   0.96163   0.97119   0.00000  Uiso   1.00
H112   H     0.18449   0.06858   0.10557   0.00000  Uiso   1.00
H113   H     0.27922   0.93665   0.91555   0.00000  Uiso   1.00
H114   H     0.29380   1.00598   0.91749   0.00000  Uiso   1.00
H115   H     0.36769   0.89565   0.94561   0.00000  Uiso   1.00
H116   H     0.27589   0.12852   0.08266   0.00000  Uiso   1.00
H117   H     0.25942   0.09296   0.13192   0.00000  Uiso   1.00
H118   H     0.35100   0.01896   0.11124   0.00000  Uiso   1.00
O119   O     0.44701   0.85687   0.03863   0.00000  Uiso   1.00
O120   O     0.26223   0.15554   0.98230   0.00000  Uiso   1.00
H121   H     0.31930   0.20929   0.96108   0.00000  Uiso   1.00
H122   H     0.58153   0.78178   0.03562   0.00000  Uiso   1.00
H123   H     0.42064   0.19814   0.94978   0.00000  Uiso   1.00
H124   H     0.73770   0.89987   0.85146   0.00000  Uiso   1.00
H125   H     0.72182   0.86080   0.89878   0.00000  Uiso   1.00
H126   H     0.81295   0.92358   0.88019   0.00000  Uiso   1.00
H127   H     0.68267   0.77035   0.02297   0.00000  Uiso   1.00
H128   H     0.73522   0.01947   0.07766   0.00000  Uiso   1.00
O129   O     0.73989   0.82402   0.00198   0.00000  Uiso   1.00
O130   O     0.55546   0.12365   0.94828   0.00000  Uiso   1.00
H131   H     0.64685   0.97224   0.87328   0.00000  Uiso   1.00
H132   H     0.86729   0.09388   0.75195   0.00000  Uiso   1.00
C133   C     1.02144   1.01092   0.22070   0.00000  Uiso   1.00
C134   C     0.08507   0.94349   0.25411   0.00000  Uiso   1.00
C135   C     0.08037   0.94331   0.30402   0.00000  Uiso   1.00
C136   C     1.01102   1.01298   0.32107   0.00000  Uiso   1.00
C137   C     0.94686   0.08196   0.28757   0.00000  Uiso   1.00
C138   C     0.95256   0.07981   0.23764   0.00000  Uiso   1.00
C139   C     0.14913   0.86850   0.33867   0.00000  Uiso   1.00
C140   C     0.87196   0.15894   0.30369   0.00000  Uiso   1.00
C141   C     0.03593   1.03184   0.40394   0.00000  Uiso   1.00
C142   C     0.03634   1.02470   0.45437   0.00000  Uiso   1.00
C143   C     1.00497   0.99688   0.47177   0.00000  Uiso   1.00
C144   C     0.97322   0.97747   0.43869   0.00000  Uiso   1.00
C145   C     0.97423   0.98536   0.38861   0.00000  Uiso   1.00
C146   C     0.06752   0.04428   0.48770   0.00000  Uiso   1.00
C147   C     0.06766   0.03625   0.53770   0.00000  Uiso   1.00
C148   C     0.03615   1.00905   0.55542   0.00000  Uiso   1.00
C149   C     0.00478   0.98917   0.52235   0.00000  Uiso   1.00
C150   C     0.97276   0.96214   0.53969   0.00000  Uiso   1.00
C151   C     0.94125   0.94293   0.50638   0.00000  Uiso   1.00
C152   C     0.94140   0.95064   0.45640   0.00000  Uiso   1.00
C153   C     0.03437   0.00209   0.60548   0.00000  Uiso   1.00
C154   C     0.97295   0.95530   0.59008   0.00000  Uiso   1.00
C155   C    -0.00331   0.97523   0.67280   0.00000  Uiso   1.00
C156   C     0.13445   0.82998   0.68855   0.00000  Uiso   1.00
C157   C     0.05369   0.90518   0.75577   0.00000  Uiso   1.00
C158   C     0.85702   0.12099   0.65646   0.00000  Uiso   1.00
C159   C     0.92113   0.04121   0.73925   0.00000  Uiso   1.00
C160   C     0.92671   0.04388   0.68974   0.00000  Uiso   1.00
C161   C     0.06021   0.90515   0.70605   0.00000  Uiso   1.00
C162   C    -0.01570   0.97296   0.77252   0.00000  Uiso   1.00
H163   H     0.81235   0.12160   0.65509   0.00000  Uiso   1.00
N164   N     1.00590   1.01133   0.37228   0.00000  Uiso   1.00
N165   N     0.00272   0.97611   0.62175   0.00000  Uiso   1.00
H166   H     0.86817   0.12098   0.61879   0.00000  Uiso   1.00
H167   H     0.13843   0.89008   0.24123   0.00000  Uiso   1.00
H168   H     0.90322   0.13250   0.21209   0.00000  Uiso   1.00
H169   H     0.19732   0.81682   0.31921   0.00000  Uiso   1.00
H170   H     0.16821   0.89100   0.36395   0.00000  Uiso   1.00
H171   H     0.13489   0.83992   0.35988   0.00000  Uiso   1.00
H172   H     0.87487   0.15684   0.34387   0.00000  Uiso   1.00
H173   H     0.85450   0.21919   0.29037   0.00000  Uiso   1.00
H174   H     0.82756   0.16169   0.28837   0.00000  Uiso   1.00
O175   O     0.94361   0.96656   0.35588   0.00000  Uiso   1.00
O176   O     0.06574   0.05944   0.38626   0.00000  Uiso   1.00
H177   H     0.09201   0.06569   0.47530   0.00000  Uiso   1.00
H178   H     0.91669   0.93523   0.43178   0.00000  Uiso   1.00
H179   H     0.09216   0.05193   0.56231   0.00000  Uiso   1.00
H180   H     0.17607   0.77651   0.71814   0.00000  Uiso   1.00
H181   H     0.12453   0.80423   0.65835   0.00000  Uiso   1.00
H182   H     0.10259   0.85202   0.78140   0.00000  Uiso   1.00
H183   H     0.91673   0.92149   0.51882   0.00000  Uiso   1.00
H184   H     0.83531   0.18143   0.67071   0.00000  Uiso   1.00
O185   O     0.94272   0.92822   0.60771   0.00000  Uiso   1.00
O186   O     0.06312   0.02309   0.63815   0.00000  Uiso   1.00
H187   H     0.15987   0.85126   0.67526   0.00000  Uiso   1.00
loop_
_geom_bond_atom_site_label_1
_geom_bond_atom_site_label_2
_geom_bond_distance
_geom_bond_site_symmetry_2
_ccdc_geom_bond_type
C0     O11     1.280   1_455 A
C0     O12     1.280   1_545 A
C0     C133    1.477   1_445 S
Sm1    O6      2.217   .     S
Sm1    O13     2.264   .     S
Sm1    O5      2.233   1_645 S
Sm1    O8      2.255   1_545 S
Sm1    O9      2.224   1_556 S
Sm1    O10     2.226   1_545 S
Sm2    O7      2.263   .     S
Sm2    O12     2.221   .     S
Sm2    O11     2.231   1_465 S
Sm2    O14     2.260   1_565 S
Sm2    O15     2.223   1_554 S
Sm2    O16     2.227   1_565 S
C3     O13     1.273   1_554 A
C3     O14     1.274   1_655 A
C3     C50     1.475   1_655 S
C4     C77     1.470   .     S
C4     O15     1.281   1_554 A
C4     O16     1.282   1_565 A
O5     Sm1     2.233   1_465 S
O5     C17     1.280   1_455 A
O6     C17     1.281   1_545 A
O7     C18     1.273   1_554 A
O8     Sm1     2.255   1_565 S
O8     C18     1.273   1_655 A
O9     Sm1     2.224   1_554 S
O9     C19     1.280   1_554 A
O10    Sm1     2.226   1_565 S
O10    C19     1.282   1_565 A
O11    C0      1.280   1_655 A
O11    Sm2     2.231   1_645 S
O12    C0      1.280   1_565 A
O13    C3      1.273   1_556 A
O14    Sm2     2.260   1_545 S
O14    C3      1.274   1_455 A
O15    Sm2     2.223   1_556 S
O15    C4      1.281   1_556 A
O16    Sm2     2.227   1_545 S
O16    C4      1.282   1_545 A
C17    O5      1.280   1_655 A
C17    O6      1.281   1_565 A
C17    C162    1.476   1_655 S
C18    O7      1.273   1_556 A
C18    O8      1.273   1_455 A
C18    C21     1.474   1_455 S
C19    C106    1.468   .     S
C19    O9      1.280   1_556 A
C19    O10     1.282   1_545 A
H20    C47     1.084   .     S
C21    C22     1.401   1_655 A
C21    C26     1.401   1_556 A
C21    C18     1.474   1_655 S
C22    C23     1.403   .     A
C22    H55     1.084   .     S
C22    C21     1.401   1_455 A
C23    C27     1.506   .     S
C23    C24     1.412   1_455 A
C24    N52     1.441   .     S
C24    C23     1.412   1_655 A
C24    C25     1.412   1_556 A
C25    C26     1.404   .     A
C25    C28     1.506   .     S
C25    C24     1.412   1_554 A
C26    H56     1.084   .     S
C26    C21     1.401   1_554 A
C27    H57     1.111   .     S
C27    H58     1.111   .     S
C27    H59     1.110   .     S
C28    H60     1.108   .     S
C28    H61     1.110   .     S
C28    H62     1.111   .     S
C29    C30     1.405   .     A
C29    O64     1.374   .     S
C29    N52     1.371   1_454 A
C30    C34     1.406   .     A
C30    C31     1.409   1_454 A
C31    C32     1.409   .     A
C31    C30     1.409   1_656 A
C31    C37     1.413   1_655 A
C32    C33     1.405   .     A
C32    C40     1.405   .     A
C33    N52     1.370   .     A
C33    O63     1.373   .     S
C34    C35     1.396   .     A
C34    H65     1.083   .     S
C35    C36     1.405   .     A
C35    H67     1.083   .     S
C36    C41     1.404   .     A
C36    C37     1.409   1_554 A
C37    C31     1.413   1_455 A
C37    C36     1.409   1_556 A
C37    C38     1.410   1_455 A
C38    C39     1.406   .     A
C38    C42     1.406   .     A
C38    C37     1.410   1_655 A
C39    C40     1.398   .     A
C39    H71     1.083   .     S
C40    H66     1.083   .     S
C41    O74     1.371   .     S
C41    N53     1.370   1_554 A
C42    O73     1.373   .     S
C42    N53     1.370   1_655 A
C43    C49     1.415   .     A
C43    N53     1.441   .     S
C43    C48     1.412   1_456 A
C44    C49     1.505   .     S
C44    H68     1.111   .     S
C44    H69     1.110   .     S
C44    H75     1.110   .     S
C45    C49     1.401   .     A
C45    H70     1.085   .     S
C45    C50     1.401   1_556 A
C46    C48     1.504   .     S
C46    H51     1.108   .     S
C46    H54     1.110   .     S
C46    H72     1.110   .     S
C47    C48     1.401   .     A
C47    C50     1.402   1_655 A
C48    C43     1.412   1_654 A
C50    C45     1.401   1_554 A
C50    C47     1.402   1_455 A
C50    C3      1.475   1_455 S
N52    C29     1.371   1_656 A
N53    C41     1.370   1_556 A
N53    C42     1.370   1_455 A
H76    C103    1.084   .     S
C77    C78     1.400   1_554 A
C77    C82     1.400   1_565 A
C78    C79     1.404   .     A
C78    H111    1.084   .     S
C78    C77     1.400   1_556 A
C79    C80     1.413   .     A
C79    C83     1.505   .     S
C80    N108    1.442   .     S
C80    C81     1.412   1_566 A
C81    C82     1.403   .     A
C81    C84     1.506   .     S
C81    C80     1.412   1_544 A
C82    H112    1.084   .     S
C82    C77     1.400   1_545 A
C83    H113    1.111   .     S
C83    H114    1.110   .     S
C83    H115    1.110   .     S
C84    H116    1.109   .     S
C84    H117    1.111   .     S
C84    H118    1.108   .     S
C85    C86     1.407   .     A
C85    O120    1.373   .     S
C85    N108    1.368   1_545 A
C86    C90     1.404   .     A
C86    C87     1.410   1_545 A
C87    C93     1.415   .     A
C87    C86     1.410   1_565 A
C87    C88     1.406   1_556 A
C88    C89     1.405   .     A
C88    C96     1.404   .     A
C88    C87     1.406   1_554 A
C89    O119    1.373   .     S
C89    N108    1.370   1_554 A
C90    C91     1.398   .     A
C90    H121    1.082   .     S
C91    C92     1.405   .     A
C91    H123    1.081   .     S
C92    C97     1.406   .     A
C92    C93     1.407   1_545 A
C93    C92     1.407   1_565 A
C93    C94     1.409   1_556 A
C94    C95     1.403   .     A
C94    C98     1.408   .     A
C94    C93     1.409   1_554 A
C95    C96     1.398   .     A
C95    H127    1.082   .     S
C96    H122    1.081   .     S
C97    O130    1.373   .     S
C97    N109    1.370   1_545 A
C98    O129    1.373   .     S
C98    N109    1.369   1_554 A
C99    C105    1.413   .     A
C99    N109    1.441   .     S
C99    C104    1.412   1_566 A
C100   C105    1.505   .     S
C100   H124    1.110   .     S
C100   H125    1.109   .     S
C100   H131    1.108   .     S
C101   C105    1.402   .     A
C101   H126    1.084   .     S
C101   C106    1.400   1_565 A
C102   C104    1.504   .     S
C102   H107    1.105   .     S
C102   H110    1.109   .     S
C102   H128    1.110   .     S
C103   C104    1.403   .     A
C103   C106    1.400   1_554 A
C104   C99     1.412   1_544 A
C106   C101    1.400   1_545 A
C106   C103    1.400   1_556 A
N108   C85     1.368   1_565 A
N108   C89     1.370   1_556 A
N109   C97     1.370   1_565 A
N109   C98     1.369   1_556 A
H132   C159    1.083   .     S
C133   C134    1.400   1_655 A
C133   C138    1.401   1_565 A
C133   C0      1.477   1_665 S
C134   C135    1.402   .     A
C134   H167    1.083   .     S
C134   C133    1.400   1_455 A
C135   C139    1.503   .     S
C135   C136    1.412   1_455 A
C136   N164    1.443   .     S
C136   C135    1.412   1_655 A
C136   C137    1.415   1_565 A
C137   C138    1.405   .     A
C137   C140    1.506   .     S
C137   C136    1.415   1_545 A
C138   H168    1.083   .     S
C138   C133    1.401   1_545 A
C139   H169    1.110   .     S
C139   H170    1.109   .     S
C139   H171    1.109   .     S
C140   H172    1.109   .     S
C140   H173    1.108   .     S
C140   H174    1.111   .     S
C141   C142    1.407   .     A
C141   N164    1.373   1_455 A
C141   O176    1.374   1_565 S
C142   C143    1.410   1_455 A
C142   C146    1.406   1_565 A
C143   C144    1.410   .     A
C143   C142    1.410   1_655 A
C143   C149    1.415   1_655 A
C144   C145    1.406   .     A
C144   C152    1.405   .     A
C145   N164    1.371   .     A
C145   O175    1.374   .     S
C146   C147    1.398   .     A
C146   H177    1.082   .     S
C146   C142    1.406   1_545 A
C147   H179    1.084   .     S
C147   C148    1.405   1_545 A
C148   C149    1.410   .     A
C148   C147    1.405   1_565 A
C148   C153    1.407   1_565 A
C149   C143    1.415   1_455 A
C149   C150    1.409   1_455 A
C150   C151    1.407   .     A
C150   C154    1.406   .     A
C150   C149    1.409   1_655 A
C151   C152    1.398   .     A
C151   H183    1.083   .     S
C152   H178    1.084   .     S
C153   O186    1.375   .     S
C153   C148    1.407   1_545 A
C153   N165    1.370   1_545 A
C154   O185    1.373   .     S
C154   N165    1.373   1_655 A
C155   C161    1.413   .     A
C155   N165    1.442   .     S
C155   C160    1.414   1_465 A
C156   C161    1.505   .     S
C156   H180    1.112   .     S
C156   H181    1.113   .     S
C156   H187    1.110   .     S
C157   C161    1.406   .     A
C157   C162    1.401   .     A
C157   H182    1.083   .     S
C158   C160    1.506   .     S
C158   H163    1.109   .     S
C158   H166    1.109   .     S
C158   H184    1.110   .     S
C159   C160    1.401   .     A
C159   C162    1.399   1_645 A
C160   C155    1.414   1_645 A
C162   C159    1.399   1_465 A
C162   C17     1.476   1_455 S
N164   C141    1.373   1_655 A
N165   C153    1.370   1_565 A
N165   C154    1.373   1_455 A
O176   C141    1.374   1_545 S
