data_pcu+N123+E161
_audit_creation_date              2023-11-17
_audit_creation_method            'Materials Studio'
_symmetry_space_group_name_H-M    'P1'
_symmetry_Int_Tables_number       1
_symmetry_cell_setting            triclinic
loop_
_symmetry_equiv_pos_as_xyz
  x,y,z
_cell_length_a                    25.8282
_cell_length_b                    24.2771
_cell_length_c                    23.5388
_cell_angle_alpha                 90.2765
_cell_angle_beta                  98.1304
_cell_angle_gamma                 71.1737
loop_
_atom_site_label
_atom_site_type_symbol
_atom_site_fract_x
_atom_site_fract_y
_atom_site_fract_z
_atom_site_U_iso_or_equiv
_atom_site_adp_type
_atom_site_occupancy
Ce0    Ce    0.07487   0.95682   1.02562   0.00000  Uiso   1.00
Ce1    Ce    0.95446  -0.00023   0.00852   0.00000  Uiso   1.00
C2     C     0.97036   0.99873   0.89801   0.00000  Uiso   1.00
C3     C     0.15236   0.99630   0.99151   0.00000  Uiso   1.00
C4     C     1.01124   0.86026   0.01291   0.00000  Uiso   1.00
C5     C     0.06191  -0.03804   0.13521   0.00000  Uiso   1.00
C6     C     0.84294   0.03389  -0.01031   0.00000  Uiso   1.00
C7     C     0.00939   0.09983   1.02156   0.00000  Uiso   1.00
O8     O     0.92414   0.01386   0.91246   0.00000  Uiso   1.00
O9     O     0.01455   0.98181   0.94303   0.00000  Uiso   1.00
O10    O     0.14986   0.94564   0.98046   0.00000  Uiso   1.00
O11    O     0.11426   1.02757   0.01891   0.00000  Uiso   1.00
O12    O     0.05851   0.86891   0.02093   0.00000  Uiso   1.00
O13    O     0.96470   0.90228   0.00635   0.00000  Uiso   1.00
O14    O     0.10806   0.94370   0.12026   0.00000  Uiso   1.00
O15    O     1.01680  -0.02161   0.09079   0.00000  Uiso   1.00
O16    O     0.87093   0.02599   0.04000   0.00000  Uiso   1.00
O17    O     0.87185   0.02620   0.94854   0.00000  Uiso   1.00
O18    O     0.96254   0.09050   1.01283   0.00000  Uiso   1.00
O19    O     0.05661   0.05804   1.02796   0.00000  Uiso   1.00
H20    H     0.92150   0.19880   0.99736   0.00000  Uiso   1.00
C21    C     0.01043   0.79938   1.01174   0.00000  Uiso   1.00
C22    C     0.06016   0.75249   1.02157   0.00000  Uiso   1.00
C23    C     0.06005   0.69475   1.02232   0.00000  Uiso   1.00
C24    C     0.00935   0.68346   1.01293   0.00000  Uiso   1.00
C25    C     0.95918   0.73021   1.00243   0.00000  Uiso   1.00
C26    C     0.96008   0.78772   1.00191   0.00000  Uiso   1.00
C27    C     0.11394   0.64538   1.03325   0.00000  Uiso   1.00
C28    C     0.90474   0.71882   0.99238   0.00000  Uiso   1.00
C29    C     0.00667   0.59914   0.06590   0.00000  Uiso   1.00
C30    C     0.00705   0.54119   0.06886   0.00000  Uiso   1.00
C31    C     0.00975   0.50941   1.01850   0.00000  Uiso   1.00
C32    C     0.01184   0.53593   0.96616   0.00000  Uiso   1.00
C33    C     0.01133   0.59402   0.96530   0.00000  Uiso   1.00
C34    C     1.00490   0.51432   0.12080   0.00000  Uiso   1.00
C35    C     1.00540   0.45657   0.12276   0.00000  Uiso   1.00
C36    C     0.00797   0.42449   0.07275   0.00000  Uiso   1.00
C37    C     0.01017   0.45101   1.02044   0.00000  Uiso   1.00
C38    C     0.01292   0.41922   0.97008   0.00000  Uiso   1.00
C39    C     0.01498   0.44610   0.91812   0.00000  Uiso   1.00
C40    C     0.01442   0.50385   0.91613   0.00000  Uiso   1.00
C41    C     1.00804   0.36651   0.07352   0.00000  Uiso   1.00
C42    C     0.01333   0.36127   0.97306   0.00000  Uiso   1.00
C43    C     0.00994   0.27717   1.02571   0.00000  Uiso   1.00
C44    C     0.11381   0.24222   0.05670   0.00000  Uiso   1.00
C45    C     0.05926   0.17307   0.03936   0.00000  Uiso   1.00
C46    C     0.90525   0.31299   0.99433   0.00000  Uiso   1.00
C47    C     0.96020   0.20734   1.00967   0.00000  Uiso   1.00
C48    C     0.95978   0.26527   1.01057   0.00000  Uiso   1.00
C49    C     0.05987   0.23065   0.04031   0.00000  Uiso   1.00
C50    C     0.00965   0.16089   0.02370   0.00000  Uiso   1.00
H51    H     0.89039   0.31114   0.94794   0.00000  Uiso   1.00
N52    N     0.00893   0.62425   1.01471   0.00000  Uiso   1.00
N53    N     0.01062   0.33628   1.02414   0.00000  Uiso   1.00
H54    H     0.90817   0.35699   1.00237   0.00000  Uiso   1.00
H55    H     0.09933   0.76079   0.02919   0.00000  Uiso   1.00
H56    H     0.92137   0.82351   0.99419   0.00000  Uiso   1.00
H57    H     0.15005   0.66138   0.04028   0.00000  Uiso   1.00
H58    H     0.11506   0.61895   0.07209   0.00000  Uiso   1.00
H59    H     0.11832   0.61714   0.99573   0.00000  Uiso   1.00
H60    H     0.89982   0.69537   0.03066   0.00000  Uiso   1.00
H61    H     0.86914   0.75992   0.98425   0.00000  Uiso   1.00
H62    H     0.90332   0.69174   0.95437   0.00000  Uiso   1.00
O63    O     0.01328   0.62059   0.91469   0.00000  Uiso   1.00
O64    O     1.00406   0.63075   0.11457   0.00000  Uiso   1.00
H65    H     1.00282   0.53777   0.16015   0.00000  Uiso   1.00
H66    H     0.01602   0.52319   0.87531   0.00000  Uiso   1.00
H67    H     1.00377   0.43725   0.16355   0.00000  Uiso   1.00
H68    H     0.14970   0.20129   0.06264   0.00000  Uiso   1.00
H69    H     0.12021   0.26985   0.02258   0.00000  Uiso   1.00
H70    H     0.09777   0.13774   0.05094   0.00000  Uiso   1.00
H71    H     0.01694   0.42266   0.87879   0.00000  Uiso   1.00
H72    H     0.87401   0.30681   1.01952   0.00000  Uiso   1.00
O73    O     0.01632   0.32956   0.92448   0.00000  Uiso   1.00
O74    O     1.00509   0.34021   0.12385   0.00000  Uiso   1.00
H75    H     0.11316   0.26508   0.09778   0.00000  Uiso   1.00
H76    H     0.77904   1.02251   0.89217   0.00000  Uiso   1.00
C77    C     0.19746   0.01588  -0.02267   0.00000  Uiso   1.00
C78    C     0.21659   0.05337   0.01349   0.00000  Uiso   1.00
C79    C     0.26454   0.06572   0.00549   0.00000  Uiso   1.00
C80    C     0.29298   0.04113  -0.04037   0.00000  Uiso   1.00
C81    C     0.27126   1.00695   0.92053   0.00000  Uiso   1.00
C82    C     0.22395   0.99402   0.93011   0.00000  Uiso   1.00
C83    C     0.28663   0.10250   0.04753   0.00000  Uiso   1.00
C84    C     0.29941   0.98289   0.86977   0.00000  Uiso   1.00
C85    C     0.39224   0.99867  -0.01852   0.00000  Uiso   1.00
C86    C     0.44603   1.00017  -0.01863   0.00000  Uiso   1.00
C87    C     0.45338   0.04951  -0.04293   0.00000  Uiso   1.00
C88    C     0.40700   0.09604   0.93245   0.00000  Uiso   1.00
C89    C     0.35382   0.09219   0.93278   0.00000  Uiso   1.00
C90    C     0.49248   0.95378   0.00551   0.00000  Uiso   1.00
C91    C     0.54564   0.95652   0.00602   0.00000  Uiso   1.00
C92    C     0.55345   1.00584  -0.01746   0.00000  Uiso   1.00
C93    C     0.50721   0.05249  -0.04213   0.00000  Uiso   1.00
C94    C     0.51476   0.10224   0.93453   0.00000  Uiso   1.00
C95    C     0.46825   0.14834   0.90972   0.00000  Uiso   1.00
C96    C     0.41496   0.14522   0.90859   0.00000  Uiso   1.00
C97    C     0.60652   1.00989  -0.01643   0.00000  Uiso   1.00
C98    C     0.56879   0.10458   0.93703   0.00000  Uiso   1.00
C99    C     0.66852   0.06178  -0.03448   0.00000  Uiso   1.00
C100   C     0.66425   0.09673   0.06783   0.00000  Uiso   1.00
C101   C     0.75151   0.06825   0.02469   0.00000  Uiso   1.00
C102   C     0.67182   1.02854   0.86345   0.00000  Uiso   1.00
C103   C     0.75546   1.03792   0.92693   0.00000  Uiso   1.00
C104   C     0.69895   1.04378   0.91954   0.00000  Uiso   1.00
C105   C     0.69482   0.07561   0.01792   0.00000  Uiso   1.00
C106   C     0.78233   1.04809  -0.01998   0.00000  Uiso   1.00
H107   H     0.63803   0.06741   0.84370   0.00000  Uiso   1.00
N108   N     0.34747   0.04422  -0.04252   0.00000  Uiso   1.00
N109   N     0.61325   0.05884  -0.03853   0.00000  Uiso   1.00
H110   H     0.65453   0.99333   0.87100   0.00000  Uiso   1.00
H111   H     0.19615   0.06989   0.05020   0.00000  Uiso   1.00
H112   H     0.20856   0.96557   0.90184   0.00000  Uiso   1.00
H113   H     0.25956   0.11817   0.08105   0.00000  Uiso   1.00
H114   H     0.32845   0.07646   0.06942   0.00000  Uiso   1.00
H115   H     0.28900   0.14128   0.02452   0.00000  Uiso   1.00
H116   H     0.34140   0.95185   0.88455   0.00000  Uiso   1.00
H117   H     0.27579   0.95949   0.84170   0.00000  Uiso   1.00
H118   H     0.30299   1.01923   0.84377   0.00000  Uiso   1.00
O119   O     0.30815   0.13692   0.90880   0.00000  Uiso   1.00
O120   O     0.38448   0.95150   0.00646   0.00000  Uiso   1.00
H121   H     0.48794   0.91527   0.02439   0.00000  Uiso   1.00
H122   H     0.38008   0.18163   0.88937   0.00000  Uiso   1.00
H123   H     0.58050   0.92009   0.02534   0.00000  Uiso   1.00
H124   H     0.66884   0.13915   0.08094   0.00000  Uiso   1.00
H125   H     0.61941   0.10304   0.05761   0.00000  Uiso   1.00
H126   H     0.77183   0.07697   0.06567   0.00000  Uiso   1.00
H127   H     0.47286   0.18700   0.89118   0.00000  Uiso   1.00
H128   H     0.70165   1.01323   0.83251   0.00000  Uiso   1.00
O129   O     0.57696   0.15303   0.91542   0.00000  Uiso   1.00
O130   O     0.65200   0.96470   0.00747   0.00000  Uiso   1.00
H131   H     0.68198   0.06484   0.10483   0.00000  Uiso   1.00
H132   H     0.02636   0.90668   0.84266   0.00000  Uiso   1.00
C133   C     0.05429  -0.03409   0.19588   0.00000  Uiso   1.00
C134   C     0.02353   0.01892   0.21628   0.00000  Uiso   1.00
C135   C     0.01624   0.02341   0.27430   0.00000  Uiso   1.00
C136   C     0.03817  -0.02662   0.31176   0.00000  Uiso   1.00
C137   C     0.06805   0.91943   0.29063   0.00000  Uiso   1.00
C138   C     0.07663   0.91654   0.23302   0.00000  Uiso   1.00
C139   C    -0.01418   0.08156   0.29612   0.00000  Uiso   1.00
C140   C     0.09100   0.86431   0.32794   0.00000  Uiso   1.00
C141   C     0.98219  -0.02257   0.38738   0.00000  Uiso   1.00
C142   C     0.97459  -0.01866   0.44546   0.00000  Uiso   1.00
C143   C     0.01822  -0.01502   0.48702   0.00000  Uiso   1.00
C144   C     0.06830   0.98521   0.46998   0.00000  Uiso   1.00
C145   C     0.07378   0.98179   0.41137   0.00000  Uiso   1.00
C146   C     0.92463  -0.01842   0.46287   0.00000  Uiso   1.00
C147   C     0.91832  -0.01527   0.52094   0.00000  Uiso   1.00
C148   C     0.96180  -0.01216   0.56283   0.00000  Uiso   1.00
C149   C     0.01180  -0.01168   0.54576   0.00000  Uiso   1.00
C150   C     0.05549   0.99180   0.58734   0.00000  Uiso   1.00
C151   C     0.10530   0.99187   0.56987   0.00000  Uiso   1.00
C152   C     0.11169   0.98852   0.51183   0.00000  Uiso   1.00
C153   C     0.95665  -0.00959   0.62152   0.00000  Uiso   1.00
C154   C     0.04820   0.99496   0.64549   0.00000  Uiso   1.00
C155   C    -0.00669  -0.00437   0.72138   0.00000  Uiso   1.00
C156   C     0.94099   0.10530   0.71018   0.00000  Uiso   1.00
C157   C     0.95593   0.04872   0.80258   0.00000  Uiso   1.00
C158   C     0.04599   0.88700   0.73268   0.00000  Uiso   1.00
C159   C     0.00925   0.94602   0.81515   0.00000  Uiso   1.00
C160   C     0.01585   0.94413   0.75689   0.00000  Uiso   1.00
C161   C     0.96380   0.04847   0.74484   0.00000  Uiso   1.00
C162   C     0.97864  -0.00210   0.83766   0.00000  Uiso   1.00
H163   H     0.08331   0.89008   0.71638   0.00000  Uiso   1.00
N164   N     0.03112  -0.02216   0.37148   0.00000  Uiso   1.00
N165   N    -0.00043  -0.00629   0.66144   0.00000  Uiso   1.00
H166   H     0.01817   0.87638   0.69684   0.00000  Uiso   1.00
H167   H     1.00647   0.05707   0.18719   0.00000  Uiso   1.00
H168   H     0.09950   0.87529   0.21670   0.00000  Uiso   1.00
H169   H    -0.02654   0.11666   0.26187   0.00000  Uiso   1.00
H170   H     0.94772   0.07975   0.31158   0.00000  Uiso   1.00
H171   H     0.01293   0.09292   0.33205   0.00000  Uiso   1.00
H172   H     1.07795   0.86975   0.37113   0.00000  Uiso   1.00
H173   H     0.07618   0.82984   0.30714   0.00000  Uiso   1.00
H174   H     0.13695   0.84932   0.33349   0.00000  Uiso   1.00
O175   O     0.12225   0.98215   0.39406   0.00000  Uiso   1.00
O176   O     0.94032  -0.02689   0.34640   0.00000  Uiso   1.00
H177   H     0.89016  -0.02053   0.43179   0.00000  Uiso   1.00
H178   H     0.15070   0.98864   0.50002   0.00000  Uiso   1.00
H179   H     0.87928  -0.01528   0.53279   0.00000  Uiso   1.00
H180   H     0.96032   0.13684   0.73073   0.00000  Uiso   1.00
H181   H     0.94981   0.10115   0.66519   0.00000  Uiso   1.00
H182   H     0.93295   0.08893   0.82058   0.00000  Uiso   1.00
H183   H     0.13961   0.99429   0.60100   0.00000  Uiso   1.00
H184   H     0.05954   0.85065   0.76569   0.00000  Uiso   1.00
O185   O     0.09016   0.99896   0.68651   0.00000  Uiso   1.00
O186   O     0.90827  -0.01034   0.63888   0.00000  Uiso   1.00
H187   H     0.89535   0.12309   0.70921   0.00000  Uiso   1.00
loop_
_geom_bond_atom_site_label_1
_geom_bond_atom_site_label_2
_geom_bond_distance
_geom_bond_site_symmetry_2
_ccdc_geom_bond_type
Ce0    O9      2.263   .     S
Ce0    O10     2.279   .     S
Ce0    O11     2.277   1_556 S
Ce0    O12     2.305   1_556 S
Ce0    O14     2.256   1_556 S
Ce0    O15     2.239   1_466 S
Ce0    O19     2.350   1_565 S
Ce1    O15     2.280   .     S
Ce1    O16     2.274   .     S
Ce1    O8      2.275   1_554 S
Ce1    O9      2.282   1_644 S
Ce1    O13     2.296   1_545 S
Ce1    O17     2.287   1_554 S
Ce1    O18     2.279   1_554 S
C2     O8      1.227   1_565 D
C2     O9      1.398   1_655 S
C2     C162    1.465   1_565 S
C3     O10     1.276   .     A
C3     O11     1.286   1_556 A
C3     C77     1.470   1_566 S
C4     O13     1.291   .     A
C4     O12     1.292   1_655 A
C4     C21     1.485   1_654 S
C5     C133    1.468   .     S
C5     O14     1.232   1_545 D
C5     O15     1.403   1_455 S
C6     O16     1.278   .     A
C6     O17     1.282   1_554 A
C6     C106    1.474   1_545 S
C7     O19     1.300   .     A
C7     O18     1.290   1_455 A
C7     C50     1.485   1_556 S
O8     Ce1     2.275   1_556 S
O8     C2      1.227   1_545 D
O9     Ce1     2.282   1_466 S
O9     C2      1.398   1_455 S
O11    Ce0     2.277   1_554 S
O11    C3      1.286   1_554 A
O12    Ce0     2.305   1_554 S
O12    C4      1.292   1_455 A
O13    Ce1     2.296   1_565 S
O14    Ce0     2.256   1_554 S
O14    C5      1.232   1_565 D
O15    Ce0     2.239   1_644 S
O15    C5      1.403   1_655 S
O17    Ce1     2.287   1_556 S
O17    C6      1.282   1_556 A
O18    Ce1     2.279   1_556 S
O18    C7      1.290   1_655 A
O19    Ce0     2.350   1_545 S
H20    C47     1.085   .     S
C21    C22     1.405   .     A
C21    C26     1.406   1_455 A
C21    C4      1.485   1_456 S
C22    C23     1.403   .     A
C22    H55     1.085   1_556 S
C23    C24     1.410   .     A
C23    C27     1.505   .     S
C24    N52     1.442   .     S
C24    C25     1.411   1_455 A
C25    C26     1.404   .     A
C25    C28     1.505   .     S
C25    C24     1.411   1_655 A
C26    H56     1.085   .     S
C26    C21     1.406   1_655 A
C27    H59     1.111   .     S
C27    H57     1.112   1_556 S
C27    H58     1.111   1_556 S
C28    H61     1.112   .     S
C28    H62     1.111   .     S
C28    H60     1.112   1_556 S
C29    C30     1.406   .     A
C29    N52     1.370   1_554 A
C29    O64     1.373   1_455 S
C30    C31     1.409   1_554 A
C30    C34     1.405   1_455 A
C31    C32     1.409   .     A
C31    C37     1.415   .     A
C31    C30     1.409   1_556 A
C32    C33     1.406   .     A
C32    C40     1.406   .     A
C33    N52     1.370   .     A
C33    O63     1.372   .     S
C34    C35     1.399   .     A
C34    H65     1.084   .     S
C34    C30     1.405   1_655 A
C35    H67     1.083   .     S
C35    C36     1.406   1_655 A
C36    C35     1.406   1_455 A
C36    C37     1.409   1_554 A
C36    C41     1.407   1_455 A
C37    C38     1.409   .     A
C37    C36     1.409   1_556 A
C38    C39     1.405   .     A
C38    C42     1.405   .     A
C39    C40     1.398   .     A
C39    H71     1.083   .     S
C40    H66     1.083   .     S
C41    O74     1.372   .     S
C41    C36     1.407   1_655 A
C41    N53     1.370   1_654 A
C42    N53     1.370   .     A
C42    O73     1.373   .     S
C43    N53     1.441   .     S
C43    C48     1.414   1_455 A
C43    C49     1.412   1_556 A
C44    C49     1.506   .     S
C44    H68     1.112   .     S
C44    H69     1.112   .     S
C44    H75     1.112   .     S
C45    C49     1.403   .     A
C45    C50     1.406   .     A
C45    H70     1.084   .     S
C46    C48     1.507   .     S
C46    H51     1.111   .     S
C46    H54     1.108   .     S
C46    H72     1.113   .     S
C47    C48     1.403   .     A
C47    C50     1.402   1_656 A
C48    C43     1.414   1_655 A
C49    C43     1.412   1_554 A
C50    C47     1.402   1_454 A
C50    C7      1.485   1_554 S
N52    C29     1.370   1_556 A
N53    C41     1.370   1_456 A
H55    C22     1.085   1_554 S
H57    C27     1.112   1_554 S
H58    C27     1.111   1_554 S
H60    C28     1.112   1_554 S
O64    C29     1.373   1_655 S
H76    C103    1.082   .     S
C77    C78     1.400   .     A
C77    C82     1.400   1_544 A
C77    C3      1.470   1_544 S
C78    C79     1.402   .     A
C78    H111    1.084   .     S
C79    C80     1.413   .     A
C79    C83     1.504   .     S
C80    N108    1.441   .     S
C80    C81     1.413   1_544 A
C81    C82     1.403   .     A
C81    C84     1.504   .     S
C81    C80     1.413   1_566 A
C82    H112    1.084   .     S
C82    C77     1.400   1_566 A
C83    H113    1.112   .     S
C83    H114    1.112   .     S
C83    H115    1.111   .     S
C84    H116    1.111   .     S
C84    H117    1.112   .     S
C84    H118    1.111   .     S
C85    C86     1.402   .     A
C85    O120    1.373   .     S
C85    N108    1.369   1_565 A
C86    C90     1.404   .     A
C86    C87     1.408   1_565 A
C87    C93     1.413   .     A
C87    C86     1.408   1_545 A
C87    C88     1.408   1_554 A
C88    C89     1.408   .     A
C88    C96     1.407   .     A
C88    C87     1.408   1_556 A
C89    O119    1.371   .     S
C89    N108    1.370   1_556 A
C90    C91     1.394   .     A
C90    H121    1.084   .     S
C91    C92     1.405   .     A
C91    H123    1.083   .     S
C92    C97     1.402   .     A
C92    C93     1.408   1_565 A
C93    C92     1.408   1_545 A
C93    C94     1.410   1_554 A
C94    C95     1.406   .     A
C94    C98     1.408   .     A
C94    C93     1.410   1_556 A
C95    C96     1.399   .     A
C95    H127    1.084   .     S
C96    H122    1.083   .     S
C97    O130    1.374   .     S
C97    N109    1.370   1_565 A
C98    O129    1.372   .     S
C98    N109    1.371   1_556 A
C99    C105    1.415   .     A
C99    N109    1.442   .     S
C99    C104    1.412   1_544 A
C100   C105    1.504   .     S
C100   H124    1.111   .     S
C100   H125    1.109   .     S
C100   H131    1.110   .     S
C101   C105    1.402   .     A
C101   H126    1.085   .     S
C101   C106    1.400   1_545 A
C102   C104    1.507   .     S
C102   H110    1.110   .     S
C102   H128    1.111   .     S
C102   H107    1.107   1_565 S
C103   C104    1.406   .     A
C103   C106    1.402   1_556 A
C104   C99     1.412   1_566 A
C106   C101    1.400   1_565 A
C106   C103    1.402   1_554 A
C106   C6      1.474   1_565 S
H107   C102    1.107   1_545 S
N108   C85     1.369   1_545 A
N108   C89     1.370   1_554 A
N109   C97     1.370   1_545 A
N109   C98     1.371   1_554 A
H132   C159    1.086   .     S
C133   C134    1.400   .     A
C133   C138    1.398   1_545 A
C134   C135    1.404   .     A
C134   H167    1.085   1_455 S
C135   C136    1.414   .     A
C135   C139    1.505   .     S
C136   N164    1.442   .     S
C136   C137    1.417   1_545 A
C137   C138    1.402   .     A
C137   C140    1.505   .     S
C137   C136    1.417   1_565 A
C138   H168    1.085   .     S
C138   C133    1.398   1_565 A
C139   H169    1.112   .     S
C139   H171    1.112   .     S
C139   H170    1.110   1_455 S
C140   H173    1.112   .     S
C140   H174    1.112   .     S
C140   H172    1.110   1_455 S
C141   C142    1.407   .     A
C141   O176    1.374   .     S
C141   N164    1.371   1_655 A
C142   C146    1.407   .     A
C142   C143    1.409   1_655 A
C143   C149    1.415   .     A
C143   C142    1.409   1_455 A
C143   C144    1.409   1_545 A
C144   C145    1.406   .     A
C144   C152    1.406   .     A
C144   C143    1.409   1_565 A
C145   O175    1.373   .     S
C145   N164    1.371   1_565 A
C146   C147    1.398   .     A
C146   H177    1.084   .     S
C147   C148    1.407   .     A
C147   H179    1.084   .     S
C148   C153    1.406   .     A
C148   C149    1.409   1_655 A
C149   C148    1.409   1_455 A
C149   C150    1.410   1_545 A
C150   C151    1.405   .     A
C150   C154    1.406   .     A
C150   C149    1.410   1_565 A
C151   C152    1.398   .     A
C151   H183    1.084   .     S
C152   H178    1.083   .     S
C153   O186    1.374   .     S
C153   N165    1.371   1_655 A
C154   O185    1.374   .     S
C154   N165    1.370   1_565 A
C155   N165    1.442   .     S
C155   C160    1.416   1_545 A
C155   C161    1.419   1_455 A
C156   C161    1.506   .     S
C156   H180    1.116   .     S
C156   H181    1.112   .     S
C156   H187    1.114   .     S
C157   C161    1.402   .     A
C157   C162    1.398   .     A
C157   H182    1.085   .     S
C158   C160    1.509   .     S
C158   H163    1.111   .     S
C158   H166    1.114   .     S
C158   H184    1.111   .     S
C159   C160    1.404   .     A
C159   C162    1.401   1_465 A
C160   C155    1.416   1_565 A
C161   C155    1.419   1_655 A
C162   C159    1.401   1_645 A
C162   C2      1.465   1_545 S
N164   C141    1.371   1_455 A
N164   C145    1.371   1_545 A
N165   C153    1.371   1_455 A
N165   C154    1.370   1_545 A
H167   C134    1.085   1_655 S
H170   C139    1.110   1_655 S
H172   C140    1.110   1_655 S
