data_pcu+N144+E9
_audit_creation_date              2023-11-17
_audit_creation_method            'Materials Studio'
_symmetry_space_group_name_H-M    'P1'
_symmetry_Int_Tables_number       1
_symmetry_cell_setting            triclinic
loop_
_symmetry_equiv_pos_as_xyz
  x,y,z
_cell_length_a                    21.3717
_cell_length_b                    19.6394
_cell_length_c                    19.6247
_cell_angle_alpha                 88.8379
_cell_angle_beta                  81.0028
_cell_angle_gamma                 106.2334
loop_
_atom_site_label
_atom_site_type_symbol
_atom_site_fract_x
_atom_site_fract_y
_atom_site_fract_z
_atom_site_U_iso_or_equiv
_atom_site_adp_type
_atom_site_occupancy
C0     C     0.19450   0.06560   0.01306   0.00000  Uiso   1.00
Er1    Er    0.93936   0.96255   1.00736   0.00000  Uiso   1.00
Er2    Er    0.05170   0.99769  -0.01240   0.00000  Uiso   1.00
C3     C    -0.00489   0.97834   0.14063   0.00000  Uiso   1.00
O4     O     0.05295   0.10846  -0.01369   0.00000  Uiso   1.00
C5     C    -0.00129   0.83815  -0.00197   0.00000  Uiso   1.00
C6     C     0.99525   0.98178   0.85448   0.00000  Uiso   1.00
C7     C     0.82292  -0.01347   1.02506   0.00000  Uiso   1.00
O8     O     0.16794   0.10025   0.05245   0.00000  Uiso   1.00
O9     O     0.16134   0.02720   0.96415   0.00000  Uiso   1.00
O10    O     0.04974   0.99804   0.87722   0.00000  Uiso   1.00
O11    O     0.94078   0.96462   0.89648   0.00000  Uiso   1.00
O12    O     0.05256   0.88762  -0.01142   0.00000  Uiso   1.00
O13    O     0.94423   0.85333   1.00718   0.00000  Uiso   1.00
C14    C     0.99901   0.12487  -0.00417   0.00000  Uiso   1.00
O15    O     0.94381   0.07594   0.00584   0.00000  Uiso   1.00
O16    O     0.04973   0.99546   0.09871   0.00000  Uiso   1.00
O17    O     0.94057   0.96167   0.11782   0.00000  Uiso   1.00
O18    O     0.87724   0.03578   1.01735   0.00000  Uiso   1.00
O19    O     0.83156  -0.07434   0.02455   0.00000  Uiso   1.00
C20    C     1.00006   0.62571  -0.00224   0.00000  Uiso   1.00
N21    N     1.05762   0.67886   0.99022   0.00000  Uiso   1.00
N22    N     1.05722   0.74659   0.99036   0.00000  Uiso   1.00
C23    C    -0.00075   0.76359  -0.00182   0.00000  Uiso   1.00
N24    N    -0.05829   0.71045   0.00584   0.00000  Uiso   1.00
N25    N    -0.05787   0.64276   0.00554   0.00000  Uiso   1.00
C26    C     1.00031   0.55100  -0.00247   0.00000  Uiso   1.00
N27    N     0.94266   0.49811   0.00417   0.00000  Uiso   1.00
N28    N     0.94274   0.43032   0.00383   0.00000  Uiso   1.00
C29    C     1.00046   0.41289  -0.00312   0.00000  Uiso   1.00
N30    N     1.05815   0.46577   0.99022   0.00000  Uiso   1.00
N31    N     1.05807   0.53361   0.99055   0.00000  Uiso   1.00
C32    C     1.00033   0.33808  -0.00359   0.00000  Uiso   1.00
N33    N     1.05794   0.32031   0.98783   0.00000  Uiso   1.00
N34    N     1.05761   0.25235   0.98744   0.00000  Uiso   1.00
C35    C    -0.00035   0.19976  -0.00434   0.00000  Uiso   1.00
N36    N    -0.05794   0.21753   0.00428   0.00000  Uiso   1.00
N37    N    -0.05761   0.28544   0.00464   0.00000  Uiso   1.00
C38    C     0.38450   0.05224   1.02376   0.00000  Uiso   1.00
N39    N     0.34599   0.00981   0.98359   0.00000  Uiso   1.00
N40    N     0.28597   0.01523   0.97974   0.00000  Uiso   1.00
C41    C     0.26189   0.06292   1.01628   0.00000  Uiso   1.00
N42    N     0.30030   0.10556   1.05663   0.00000  Uiso   1.00
N43    N     0.36077   0.10054   1.06004   0.00000  Uiso   1.00
C44    C     0.44993   0.04404   1.02833   0.00000  Uiso   1.00
N45    N     0.49643   0.09521   1.05313   0.00000  Uiso   1.00
N46    N     0.55611   0.08722   1.05537   0.00000  Uiso   1.00
C47    C     0.57098   0.02748   1.03356   0.00000  Uiso   1.00
N48    N     0.52426  -0.02369   0.00936   0.00000  Uiso   1.00
N49    N     0.46503  -0.01540   0.00646   0.00000  Uiso   1.00
C50    C     0.63637   0.01757   1.03498   0.00000  Uiso   1.00
N51    N     0.64508  -0.04778   1.02691   0.00000  Uiso   1.00
N52    N     0.70444  -0.05748   1.02525   0.00000  Uiso   1.00
C53    C     0.75750  -0.00209   1.03099   0.00000  Uiso   1.00
N54    N     0.74902   0.06345   1.03925   0.00000  Uiso   1.00
N55    N     0.68933   0.07306   1.04156   0.00000  Uiso   1.00
C56    C    -0.00498   0.97890   0.35364   0.00000  Uiso   1.00
N57    N     0.05283  -0.00326   0.30827   0.00000  Uiso   1.00
N58    N     0.05285  -0.00364   0.24038   0.00000  Uiso   1.00
C59    C    -0.00494   0.97815   0.21540   0.00000  Uiso   1.00
N60    N    -0.06276   0.96029   0.26075   0.00000  Uiso   1.00
N61    N    -0.06277   0.96062   0.32864   0.00000  Uiso   1.00
C62    C    -0.00498   0.97957   0.42845   0.00000  Uiso   1.00
N63    N    -0.06273   0.95999   0.47391   0.00000  Uiso   1.00
N64    N    -0.06271   0.96085   0.54177   0.00000  Uiso   1.00
C65    C    -0.00494   0.98134   0.56666   0.00000  Uiso   1.00
N66    N     0.05281   0.00100   0.52121   0.00000  Uiso   1.00
N67    N     0.05279   0.00016   0.45334   0.00000  Uiso   1.00
C68    C    -0.00490   0.98191   0.64148   0.00000  Uiso   1.00
N69    N     0.05292   0.00078   0.66639   0.00000  Uiso   1.00
N70    N     0.05297   0.00092   0.73428   0.00000  Uiso   1.00
C71    C    -0.00480   0.98226   0.77971   0.00000  Uiso   1.00
N72    N    -0.06262   0.96355   0.75481   0.00000  Uiso   1.00
N73    N    -0.06267   0.96331   0.68693   0.00000  Uiso   1.00
loop_
_geom_bond_atom_site_label_1
_geom_bond_atom_site_label_2
_geom_bond_distance
_geom_bond_site_symmetry_2
_ccdc_geom_bond_type
C0     O8      1.218   .     D
C0     O9      1.391   1_554 S
C0     C41     1.467   1_554 S
Er1    O11     2.171   .     S
Er1    O13     2.176   .     S
Er1    O15     2.202   1_566 S
Er1    O17     2.172   1_556 S
Er1    O18     2.206   1_565 S
Er1    O19     2.182   1_566 S
Er2    O12     2.167   .     S
Er2    O16     2.174   .     S
Er2    O4      2.168   1_565 S
Er2    O9      2.221   1_564 S
Er2    O10     2.173   1_554 S
C3     O16     1.273   .     A
C3     C59     1.467   .     S
C3     O17     1.273   1_455 A
O4     Er2     2.168   1_545 S
O4     C14     1.269   1_455 A
C5     O12     1.266   .     A
C5     C23     1.467   .     S
C5     O13     1.268   1_454 A
C6     O11     1.272   .     A
C6     O10     1.272   1_655 A
C6     C71     1.467   1_655 S
C7     O18     1.272   .     A
C7     C53     1.464   .     S
C7     O19     1.259   1_556 A
O9     C0      1.391   1_556 S
O9     Er2     2.221   1_546 S
O10    Er2     2.173   1_556 S
O10    C6      1.272   1_455 A
O13    C5      1.268   1_656 A
C14    O15     1.281   .     A
C14    O4      1.269   1_655 A
C14    C35     1.467   1_655 S
O15    Er1     2.202   1_544 S
O17    Er1     2.172   1_554 S
O17    C3      1.273   1_655 A
O18    Er1     2.206   1_545 S
O19    Er1     2.182   1_544 S
O19    C7      1.259   1_554 A
C20    C26     1.469   .     S
C20    N21     1.358   1_554 A
C20    N25     1.358   1_655 A
N21    N22     1.333   .     A
N21    C20     1.358   1_556 A
N22    C23     1.358   1_656 A
C23    N24     1.357   .     A
C23    N22     1.358   1_454 A
N24    N25     1.332   .     A
N25    C20     1.358   1_455 A
C26    N27     1.357   .     A
C26    N31     1.358   1_554 A
N27    N28     1.332   .     A
N28    C29     1.357   .     A
C29    C32     1.469   .     S
C29    N30     1.358   1_554 A
N30    N31     1.333   .     A
N30    C29     1.358   1_556 A
N31    C26     1.358   1_556 A
C32    N33     1.358   1_554 A
C32    N37     1.357   1_655 A
N33    N34     1.333   .     A
N33    C32     1.358   1_556 A
N34    C35     1.358   1_656 A
C35    N36     1.357   .     A
C35    N34     1.358   1_454 A
C35    C14     1.467   1_455 S
N36    N37     1.332   .     A
N37    C32     1.357   1_455 A
C38    N39     1.356   .     A
C38    N43     1.359   .     A
C38    C44     1.468   .     S
N39    N40     1.330   .     A
N40    C41     1.356   .     A
C41    N42     1.359   .     A
C41    C0      1.467   1_556 S
N42    N43     1.335   .     A
C44    N45     1.359   .     A
C44    N49     1.356   1_556 A
N45    N46     1.335   .     A
N46    C47     1.359   .     A
C47    C50     1.468   .     S
C47    N48     1.356   1_556 A
N48    N49     1.330   .     A
N48    C47     1.356   1_554 A
N49    C44     1.356   1_554 A
C50    N51     1.356   .     A
C50    N55     1.359   .     A
N51    N52     1.330   .     A
N52    C53     1.356   .     A
C53    N54     1.358   .     A
N54    N55     1.335   .     A
C56    N61     1.358   .     A
C56    C62     1.469   .     S
C56    N57     1.358   1_565 A
N57    N58     1.332   .     A
N57    C56     1.358   1_545 A
N58    C59     1.358   1_545 A
C59    N60     1.357   .     A
C59    N58     1.358   1_565 A
N60    N61     1.332   .     A
C62    N63     1.358   .     A
C62    N67     1.358   1_565 A
N63    N64     1.332   .     A
N64    C65     1.358   .     A
C65    C68     1.469   .     S
C65    N66     1.358   1_565 A
N66    N67     1.332   .     A
N66    C65     1.358   1_545 A
N67    C62     1.358   1_545 A
C68    N73     1.358   .     A
C68    N69     1.358   1_565 A
N69    N70     1.332   .     A
N69    C68     1.358   1_545 A
N70    C71     1.358   1_545 A
C71    N72     1.358   .     A
C71    N70     1.358   1_565 A
C71    C6      1.467   1_455 S
N72    N73     1.332   .     A
