data_pcu+N106+E70
_audit_creation_date              2023-11-17
_audit_creation_method            'Materials Studio'
_symmetry_space_group_name_H-M    'P1'
_symmetry_Int_Tables_number       1
_symmetry_cell_setting            triclinic
loop_
_symmetry_equiv_pos_as_xyz
  x,y,z
_cell_length_a                    13.3206
_cell_length_b                    10.5211
_cell_length_c                    9.3001
_cell_angle_alpha                 76.7986
_cell_angle_beta                  69.6501
_cell_angle_gamma                 86.0749
loop_
_atom_site_label
_atom_site_type_symbol
_atom_site_fract_x
_atom_site_fract_y
_atom_site_fract_z
_atom_site_U_iso_or_equiv
_atom_site_adp_type
_atom_site_occupancy
Y0     Y     0.90448   0.02275  -0.00652   0.00000  Uiso   1.00
Y1     Y     0.15714   1.01008   0.92854   0.00000  Uiso   1.00
O2     O     0.94346   0.23479  -0.05880   0.00000  Uiso   1.00
O3     O     1.05462   0.08343   0.77678   0.00000  Uiso   1.00
C4     C     0.32822   0.99376   1.02262   0.00000  Uiso   1.00
O5     O     0.18926   0.95891   0.69685   0.00000  Uiso   1.00
O6     O     0.73793  -0.02676   0.15670   0.00000  Uiso   1.00
O7     O     0.75675   0.04021   0.91820   0.00000  Uiso   1.00
O8     O     0.10568   0.21388   0.96967   0.00000  Uiso   1.00
O9     O     0.00907   0.92713   0.12553   0.00000  Uiso   1.00
O10    O     0.90044   0.06365   0.23020   0.00000  Uiso   1.00
O11    O     0.94848   0.81951  -0.05093   0.00000  Uiso   1.00
C12    C     0.02137   0.27965   0.96592   0.00000  Uiso   1.00
O13    O     0.11012   0.79578   0.97987   0.00000  Uiso   1.00
C14    C     0.10754   1.00270   0.67516   0.00000  Uiso   1.00
O15    O     0.33661   1.03274   0.87939   0.00000  Uiso   1.00
O16    O     0.23375   0.96403   0.11126   0.00000  Uiso   1.00
C17    C     0.69215   0.00063   0.05641   0.00000  Uiso   1.00
C18    C     1.02632   0.74824  -0.02884   0.00000  Uiso   1.00
C19    C     0.97044  -0.01149   0.24666   0.00000  Uiso   1.00
N20    N     0.04531   0.51805   0.93793   0.00000  Uiso   1.00
H21    H     0.89367   0.61777   0.25670   0.00000  Uiso   1.00
C22    C     0.00563   0.60776   0.02511   0.00000  Uiso   1.00
C23    C     0.93408   0.55863   0.17254   0.00000  Uiso   1.00
C24    C     1.00229   0.40021   0.02338   0.00000  Uiso   1.00
S25    S     0.91329   0.39592   0.20894   0.00000  Uiso   1.00
N26    N     0.51954   0.00705   1.00464   0.00000  Uiso   1.00
H27    H     0.31363   0.92103   0.33359   0.00000  Uiso   1.00
C28    C     0.41498   0.98280   0.08832   0.00000  Uiso   1.00
C29    C     0.39300   0.94435   0.24820   0.00000  Uiso   1.00
C30    C     0.57561   0.98580   0.10435   0.00000  Uiso   1.00
S31    S     0.50291   0.93656   0.30049   0.00000  Uiso   1.00
N32    N     1.02061   0.02390   0.47104   0.00000  Uiso   1.00
H33    H     0.02743   0.74406   0.36258   0.00000  Uiso   1.00
C34    C     0.00204   0.94592   0.38609   0.00000  Uiso   1.00
C35    C     0.03363   0.81886   0.42212   0.00000  Uiso   1.00
C36    C     0.06734   0.95221   0.57082   0.00000  Uiso   1.00
S37    S     0.08952   0.79106   0.56303   0.00000  Uiso   1.00
loop_
_geom_bond_atom_site_label_1
_geom_bond_atom_site_label_2
_geom_bond_distance
_geom_bond_site_symmetry_2
_ccdc_geom_bond_type
Y0     O2      2.229   .     S
Y0     O6      2.225   .     S
Y0     O10     2.320   .     S
Y0     O3      2.292   1_554 S
Y0     O7      2.290   1_554 S
Y0     O9      2.213   1_645 S
Y0     O11     2.269   1_545 S
Y1     O5      2.230   .     S
Y1     O13     2.280   .     S
Y1     O15     2.291   .     S
Y1     O3      2.270   1_465 S
Y1     O8      2.281   1_565 S
Y1     O9      2.236   1_556 S
Y1     O16     2.219   1_556 S
O2     C12     1.279   1_654 A
O3     Y0      2.292   1_556 S
O3     Y1      2.270   1_645 S
O3     C14     1.390   1_645 S
C4     O15     1.268   .     A
C4     O16     1.255   1_556 A
C4     C28     1.471   1_556 S
O5     C14     1.216   .     D
O6     C17     1.255   .     A
O7     Y0      2.290   1_556 S
O7     C17     1.265   1_556 A
O8     C12     1.285   .     A
O8     Y1      2.281   1_545 S
O9     Y0      2.213   1_465 S
O9     Y1      2.236   1_554 S
O9     C19     1.354   1_465 S
O10    C19     1.209   .     D
O11    C18     1.285   .     A
O11    Y0      2.269   1_565 S
C12    O2      1.279   1_456 A
C12    C24     1.459   1_456 S
O13    C18     1.289   1_456 A
C14    C36     1.465   .     S
C14    O3      1.390   1_465 S
O16    Y1      2.219   1_554 S
O16    C4      1.255   1_554 A
C17    O7      1.265   1_554 A
C17    C30     1.467   1_545 S
C18    O13     1.289   1_654 A
C18    C22     1.461   1_655 S
C19    O9      1.354   1_645 S
C19    C34     1.466   1_645 S
N20    C22     1.346   1_556 A
N20    C24     1.352   1_456 A
H21    C23     1.083   .     S
C22    N20     1.346   1_554 A
C22    C23     1.375   1_455 A
C22    C18     1.461   1_455 S
C23    S25     1.690   .     A
C23    C22     1.375   1_655 A
C24    S25     1.713   .     A
C24    N20     1.352   1_654 A
C24    C12     1.459   1_654 S
N26    C28     1.347   1_546 A
N26    C30     1.353   1_546 A
H27    C29     1.082   .     S
C28    C29     1.378   .     A
C28    N26     1.347   1_564 A
C28    C4      1.471   1_554 S
C29    S31     1.687   .     A
C30    S31     1.715   .     A
C30    N26     1.353   1_564 A
C30    C17     1.467   1_565 S
N32    C34     1.348   1_645 A
N32    C36     1.355   1_645 A
H33    C35     1.083   .     S
C34    C35     1.376   .     A
C34    N32     1.348   1_465 A
C34    C19     1.466   1_465 S
C35    S37     1.682   .     A
C36    S37     1.715   .     A
C36    N32     1.355   1_465 A
