data_pcu+N173+E8
_audit_creation_date              2023-11-17
_audit_creation_method            'Materials Studio'
_symmetry_space_group_name_H-M    'P1'
_symmetry_Int_Tables_number       1
_symmetry_cell_setting            triclinic
loop_
_symmetry_equiv_pos_as_xyz
  x,y,z
_cell_length_a                    11.3190
_cell_length_b                    16.4526
_cell_length_c                    12.1694
_cell_angle_alpha                 114.2470
_cell_angle_beta                  60.0045
_cell_angle_gamma                 60.2291
loop_
_atom_site_label
_atom_site_type_symbol
_atom_site_fract_x
_atom_site_fract_y
_atom_site_fract_z
_atom_site_U_iso_or_equiv
_atom_site_adp_type
_atom_site_occupancy
Gd0    Gd    0.28258   0.70877   0.72928   0.00000  Uiso   1.00
Gd1    Gd    0.73692   0.27975   0.25184   0.00000  Uiso   1.00
O2     O     0.49339   0.29737   0.31695   0.00000  Uiso   1.00
O3     O     0.81549   1.03325   1.11296   0.00000  Uiso   1.00
O4     O     1.22861   0.79072   0.62526   0.00000  Uiso   1.00
O5     O     0.14129  -0.01933   0.81649   0.00000  Uiso   1.00
O6     O     0.27104   0.62470   0.83163   0.00000  Uiso   1.00
O7     O     1.07510   0.69677   0.80892   0.00000  Uiso   1.00
O8     O     0.55050   0.67420   0.64056   0.00000  Uiso   1.00
C9     C     0.13472   0.64264   0.85100   0.00000  Uiso   1.00
O10    O     0.15637  -0.02844  -0.06285   0.00000  Uiso   1.00
O11    O    -0.12530   1.00515   0.18003   0.00000  Uiso   1.00
C12    C     1.14350  -0.08182   0.70813   0.00000  Uiso   1.00
O13    O     0.78914   0.19909   0.36003   0.00000  Uiso   1.00
O14    O     0.75827   0.35740   1.14169   0.00000  Uiso   1.00
O15    O    -0.04771   0.28623   0.16601   0.00000  Uiso   1.00
C16    C     0.61647   0.15097   0.19536   0.00000  Uiso   1.00
C17    C     0.89454   0.33933   0.12240   0.00000  Uiso   1.00
C18    C    -0.14975   1.08524   0.30492   0.00000  Uiso   1.00
C19    C     0.41777   0.82497   0.77702   0.00000  Uiso   1.00
C20    C     0.06643   0.49556  -0.00082   0.00000  Uiso   1.00
C21    C     0.93497   0.50533   1.00028   0.00000  Uiso   1.00
N22    N     0.85580   0.57037   0.96805   0.00000  Uiso   1.00
C23    C     0.90898   0.62148   0.92814   0.00000  Uiso   1.00
C24    C     1.05332   0.60324   0.91479   0.00000  Uiso   1.00
N25    N     0.12482   0.54306  -0.04554   0.00000  Uiso   1.00
N26    N     0.13882   0.43514   0.03780   0.00000  Uiso   1.00
C27    C     0.09153   0.38008   0.07212   0.00000  Uiso   1.00
C28    C    -0.04060   0.38998   0.07402   0.00000  Uiso   1.00
N29    N     0.88346   0.45312   1.03850   0.00000  Uiso   1.00
H30    H     0.84591   0.67114   0.90058   0.00000  Uiso   1.00
H31    H     0.15304   0.33140   0.10094   0.00000  Uiso   1.00
C32    C     0.38551   0.06137   0.06200   0.00000  Uiso   1.00
C33    C     0.68074   0.90333   0.86921   0.00000  Uiso   1.00
N34    N     0.89161   0.72017   0.64065   0.00000  Uiso   1.00
C35    C     0.81866   0.68829   0.59832   0.00000  Uiso   1.00
C36    C     0.52109   0.84733   0.79372   0.00000  Uiso   1.00
N37    N     0.31155   0.02985   0.02250   0.00000  Uiso   1.00
N38    N     0.17405   0.24396   0.29083   0.00000  Uiso   1.00
C39    C     0.24459   0.27650   0.33568   0.00000  Uiso   1.00
C40    C     0.54046   0.11774   1.14427   0.00000  Uiso   1.00
N41    N     0.75330   0.93391   0.91339   0.00000  Uiso   1.00
H42    H     0.98916   0.54053   0.41823   0.00000  Uiso   1.00
H43    H     0.06972   0.42383   0.52269   0.00000  Uiso   1.00
C44    C    -0.04522   1.07052   0.54475   0.00000  Uiso   1.00
C45    C     0.92652   0.00173   0.56610   0.00000  Uiso   1.00
N46    N     0.86666  -0.03442   0.50790   0.00000  Uiso   1.00
C47    C     0.84041  -0.00891   0.42340   0.00000  Uiso   1.00
C48    C     0.86450   0.06255   0.40536   0.00000  Uiso   1.00
N49    N    -0.07515   1.09822   0.46379   0.00000  Uiso   1.00
N50    N     0.02500   1.10011   0.59382   0.00000  Uiso   1.00
C51    C     0.07065   1.06271   0.66153   0.00000  Uiso   1.00
C52    C     0.05142  -0.01159   0.67571   0.00000  Uiso   1.00
N53    N     0.98235  -0.04199   0.62470   0.00000  Uiso   1.00
H54    H     0.79247  -0.03860   0.37857   0.00000  Uiso   1.00
H55    H     0.14496   1.07579   0.68249   0.00000  Uiso   1.00
loop_
_geom_bond_atom_site_label_1
_geom_bond_atom_site_label_2
_geom_bond_distance
_geom_bond_site_symmetry_2
_ccdc_geom_bond_type
Gd0    O6      2.217   .     S
Gd0    O8      2.279   .     S
Gd0    O3      2.251   1_455 S
Gd0    O4      2.269   1_455 S
Gd0    O7      2.199   1_455 S
Gd0    O11     2.353   1_556 S
Gd1    O2      2.268   .     S
Gd1    O13     2.297   .     S
Gd1    O5      2.282   1_654 S
Gd1    O10     2.210   1_655 S
Gd1    O14     2.208   1_554 S
Gd1    O15     2.202   1_655 S
O2     C16     1.269   .     A
O3     Gd0     2.251   1_655 S
O3     C16     1.282   1_566 A
O4     Gd0     2.269   1_655 S
O4     C12     1.276   1_565 A
O5     Gd1     2.282   1_456 S
O5     C12     1.275   1_455 A
O6     C9      1.285   .     A
O7     Gd0     2.199   1_655 S
O7     C9      1.278   1_655 A
O8     C19     1.261   .     A
C9     O7      1.278   1_455 A
C9     C24     1.471   1_455 S
O10    Gd1     2.210   1_455 S
O10    C19     1.287   1_544 A
O11    C18     1.302   .     A
O11    Gd0     2.353   1_554 S
C12    O4      1.276   1_545 A
C12    O5      1.275   1_655 A
C12    C52     1.472   1_655 S
O13    C18     1.286   1_645 A
O14    Gd1     2.208   1_556 S
O14    C17     1.284   1_556 A
O15    Gd1     2.202   1_455 S
O15    C17     1.278   1_455 A
C16    O3      1.282   1_544 A
C16    C40     1.466   1_554 S
C17    O14     1.284   1_554 A
C17    O15     1.278   1_655 A
C17    C28     1.469   1_655 S
C18    O13     1.286   1_465 A
C18    C48     1.474   1_465 S
C19    C36     1.465   .     S
C19    O10     1.287   1_566 A
C20    N25     1.359   .     A
C20    N26     1.357   .     A
C20    C21     1.407   1_454 A
C21    N22     1.359   .     A
C21    N29     1.360   .     A
C21    C20     1.407   1_656 A
N22    C23     1.361   .     A
C23    C24     1.412   .     A
C23    H30     1.084   .     S
C24    N25     1.362   1_656 A
C24    C9      1.471   1_655 S
N25    C24     1.362   1_454 A
N26    C27     1.360   .     A
C27    C28     1.409   .     A
C27    H31     1.082   .     S
C28    N29     1.363   1_454 A
C28    C17     1.469   1_455 S
N29    C28     1.363   1_656 A
C32    N37     1.353   .     A
C32    N38     1.354   .     A
C32    C33     1.398   1_544 A
C33    N34     1.360   .     A
C33    N41     1.359   .     A
C33    C32     1.398   1_566 A
N34    C35     1.362   .     A
C35    C36     1.405   .     A
C35    H42     1.083   .     S
C36    N37     1.361   1_566 A
N37    C36     1.361   1_544 A
N38    C39     1.357   .     A
C39    H43     1.083   .     S
C39    C40     1.407   1_554 A
C40    C39     1.407   1_556 A
C40    N41     1.365   1_545 A
C40    C16     1.466   1_556 S
N41    C40     1.365   1_565 A
C44    N49     1.357   .     A
C44    N50     1.359   .     A
C44    C45     1.403   1_465 A
C45    N46     1.360   .     A
C45    N53     1.359   .     A
C45    C44     1.403   1_645 A
N46    C47     1.363   .     A
C47    C48     1.406   .     A
C47    H54     1.082   .     S
C48    N49     1.363   1_645 A
C48    C18     1.474   1_645 S
N49    C48     1.363   1_465 A
N50    C51     1.361   .     A
C51    H55     1.081   .     S
C51    C52     1.404   1_565 A
C52    C51     1.404   1_545 A
C52    N53     1.366   1_455 A
C52    C12     1.472   1_455 S
N53    C52     1.366   1_655 A
