data_pcu+N123+E225
_audit_creation_date              2023-11-17
_audit_creation_method            'Materials Studio'
_symmetry_space_group_name_H-M    'P1'
_symmetry_Int_Tables_number       1
_symmetry_cell_setting            triclinic
loop_
_symmetry_equiv_pos_as_xyz
  x,y,z
_cell_length_a                    22.5048
_cell_length_b                    20.0654
_cell_length_c                    19.1068
_cell_angle_alpha                 90.1281
_cell_angle_beta                  89.2103
_cell_angle_gamma                 80.9989
loop_
_atom_site_label
_atom_site_type_symbol
_atom_site_fract_x
_atom_site_fract_y
_atom_site_fract_z
_atom_site_U_iso_or_equiv
_atom_site_adp_type
_atom_site_occupancy
Ce0    Ce    0.06213   1.00284   0.99126   0.00000  Uiso   1.00
Ce1    Ce    0.93370   0.01071   0.00872   0.00000  Uiso   1.00
C2     C     0.93793   1.01911   0.86845   0.00000  Uiso   1.00
C3     C     0.18275   0.99522   0.97936   0.00000  Uiso   1.00
C4     C     1.01039   0.86102  -0.01036   0.00000  Uiso   1.00
C5     C     0.05787  -0.00566   0.13152   0.00000  Uiso   1.00
C6     C     0.81307   0.01838   0.02059   0.00000  Uiso   1.00
C7     C    -0.01456   0.15252   1.01048   0.00000  Uiso   1.00
O8     O     0.89061   0.02030   0.90142   0.00000  Uiso   1.00
O9     O    -0.01054   1.01300   0.90973   0.00000  Uiso   1.00
O10    O     0.14813   1.00092   0.92651   0.00000  Uiso   1.00
O11    O     0.15573   0.99338   0.03862   0.00000  Uiso   1.00
O12    O     0.05866   0.88877  -0.01415   0.00000  Uiso   1.00
O13    O     0.95684   0.89518  -0.00223   0.00000  Uiso   1.00
O14    O     0.10521   0.99320   0.09861   0.00000  Uiso   1.00
O15    O     1.00637   0.00050   0.09021   0.00000  Uiso   1.00
O16    O     0.84768   0.01268   0.07346   0.00000  Uiso   1.00
O17    O     0.84012   0.02018   0.96135   0.00000  Uiso   1.00
O18    O     0.93716   0.12477   1.01415   0.00000  Uiso   1.00
O19    O     0.03899   0.11837   1.00228   0.00000  Uiso   1.00
C20    C     0.01673   0.78646   0.98449   0.00000  Uiso   1.00
C21    C     0.96559   0.75412   0.98515   0.00000  Uiso   1.00
C22    C     0.97157   0.68385   0.98037   0.00000  Uiso   1.00
C23    C     1.02904   0.64428  -0.02401   0.00000  Uiso   1.00
C24    C     0.07981   0.67654  -0.02630   0.00000  Uiso   1.00
C25    C     0.07394   0.74681  -0.02164   0.00000  Uiso   1.00
C26    C     0.99739   0.53966   1.00627   0.00000  Uiso   1.00
H27    H     0.07506   0.23039   0.01261   0.00000  Uiso   1.00
H28    H     0.06460   0.35267   0.02344   0.00000  Uiso   1.00
H29    H     0.87165   0.36657   1.03213   0.00000  Uiso   1.00
H30    H     0.88153   0.24354   1.02270   0.00000  Uiso   1.00
H31    H     1.02982   0.44804  -0.04312   0.00000  Uiso   1.00
O32    O     0.95840   0.43971   1.03308   0.00000  Uiso   1.00
O33    O     1.03751   0.57368  -0.03123   0.00000  Uiso   1.00
C34    C     0.97911   0.22704   0.01597   0.00000  Uiso   1.00
C35    C     0.03027   0.25935   0.01603   0.00000  Uiso   1.00
C36    C     1.02431   0.32956   0.02140   0.00000  Uiso   1.00
C37    C     0.96684   0.36915   1.02555   0.00000  Uiso   1.00
C38    C     0.91604   0.33691   1.02722   0.00000  Uiso   1.00
C39    C     0.92189   0.26669   1.02198   0.00000  Uiso   1.00
C40    C     0.99865   0.47377  -0.00418   0.00000  Uiso   1.00
H41    H     0.93128   0.66072   0.97886   0.00000  Uiso   1.00
H42    H     0.12419   0.64689  -0.03138   0.00000  Uiso   1.00
H43    H     0.92081   0.78308   0.98868   0.00000  Uiso   1.00
H44    H     0.96623   0.56544   1.04520   0.00000  Uiso   1.00
H45    H     0.11429   0.76997  -0.02292   0.00000  Uiso   1.00
C46    C     0.24865  -0.00880  -0.02731   0.00000  Uiso   1.00
C47    C     0.28468  -0.01483   0.03249   0.00000  Uiso   1.00
C48    C     0.34707  -0.01844   0.02619   0.00000  Uiso   1.00
C49    C     0.37448   0.98492   0.95977   0.00000  Uiso   1.00
C50    C     0.33859   0.98923   0.90023   0.00000  Uiso   1.00
C51    C     0.27620   0.99290   0.90646   0.00000  Uiso   1.00
C52    C     0.46792   0.01116   0.00095   0.00000  Uiso   1.00
H53    H     0.73124   1.03072   0.91573   0.00000  Uiso   1.00
H54    H     0.62210   1.03868   0.92673   0.00000  Uiso   1.00
H55    H     0.63653   0.02376   0.15105   0.00000  Uiso   1.00
H56    H     0.74615   0.01692   0.14048   0.00000  Uiso   1.00
H57    H     0.55176   0.97005   0.95876   0.00000  Uiso   1.00
O58    O     0.55869   0.03445   0.04941   0.00000  Uiso   1.00
O59    O     0.43709   0.97956   0.95031   0.00000  Uiso   1.00
C60    C     0.74717   0.02247   1.02722   0.00000  Uiso   1.00
C61    C     0.71119   1.02847   0.96737   0.00000  Uiso   1.00
C62    C     0.64879   1.03221   0.97362   0.00000  Uiso   1.00
C63    C     0.62131   0.02900   0.04001   0.00000  Uiso   1.00
C64    C     0.65716   0.02472   0.09961   0.00000  Uiso   1.00
C65    C     0.71955   0.02091   0.09343   0.00000  Uiso   1.00
C66    C     0.52785   0.00291   0.99874   0.00000  Uiso   1.00
H67    H     0.37380  -0.02492   0.07303   0.00000  Uiso   1.00
H68    H     0.35916   0.99030   0.84877   0.00000  Uiso   1.00
H69    H     0.26468  -0.01720   0.08414   0.00000  Uiso   1.00
H70    H     0.44399   0.04399   0.04095   0.00000  Uiso   1.00
H71    H     0.24957   0.99692   0.85944   0.00000  Uiso   1.00
C72    C     1.05539  -0.01040   0.20850   0.00000  Uiso   1.00
C73    C     1.00010  -0.01083   0.24322   0.00000  Uiso   1.00
C74    C     0.99743  -0.01530   0.31617   0.00000  Uiso   1.00
C75    C     0.05015   0.98170   0.35583   0.00000  Uiso   1.00
C76    C     0.10538   0.98041   0.32087   0.00000  Uiso   1.00
C77    C     0.10811   0.98483   0.24793   0.00000  Uiso   1.00
C78    C     0.00046   0.01057   0.46563   0.00000  Uiso   1.00
H79    H     0.03652   1.02335   0.78579   0.00000  Uiso   1.00
H80    H     0.04081   1.03182   0.65835   0.00000  Uiso   1.00
H81    H     0.84926   0.03397   0.64957   0.00000  Uiso   1.00
H82    H     0.84448   0.02668   0.77775   0.00000  Uiso   1.00
H83    H     0.02852   0.96569   0.56051   0.00000  Uiso   1.00
O84    O     0.94505   0.03679   0.57082   0.00000  Uiso   1.00
O85    O     0.05028   0.97535   0.42909   0.00000  Uiso   1.00
C86    C    -0.05969   1.02360   0.79145   0.00000  Uiso   1.00
C87    C    -0.00458   1.02488   0.75661   0.00000  Uiso   1.00
C88    C    -0.00203   1.02893   0.68362   0.00000  Uiso   1.00
C89    C    -0.05468   0.03069   0.64409   0.00000  Uiso   1.00
C90    C     0.89027   0.03104   0.67915   0.00000  Uiso   1.00
C91    C     0.88767   0.02702   0.75212   0.00000  Uiso   1.00
C92    C    -0.00504   1.00168   0.53437   0.00000  Uiso   1.00
H93    H     0.95440  -0.01756   0.34126   0.00000  Uiso   1.00
H94    H     0.14644   0.97643   0.35052   0.00000  Uiso   1.00
H95    H     0.95893  -0.00834   0.21397   0.00000  Uiso   1.00
H96    H     0.96693   0.04664   0.43957   0.00000  Uiso   1.00
H97    H     0.15143   0.98439   0.22239   0.00000  Uiso   1.00
loop_
_geom_bond_atom_site_label_1
_geom_bond_atom_site_label_2
_geom_bond_distance
_geom_bond_site_symmetry_2
_ccdc_geom_bond_type
Ce0    O9      2.260   .     S
Ce0    O10     2.278   .     S
Ce0    O11     2.285   1_556 S
Ce0    O12     2.304   1_556 S
Ce0    O14     2.276   1_556 S
Ce0    O15     2.259   1_466 S
Ce0    O19     2.304   1_565 S
Ce1    O15     2.260   .     S
Ce1    O16     2.278   .     S
Ce1    O8      2.276   1_554 S
Ce1    O9      2.260   1_644 S
Ce1    O13     2.303   1_545 S
Ce1    O17     2.285   1_554 S
Ce1    O18     2.304   1_554 S
C2     O8      1.227   1_565 D
C2     O9      1.401   1_655 S
C2     C86     1.475   1_655 S
C3     O10     1.278   .     A
C3     O11     1.281   1_556 A
C3     C46     1.476   1_566 S
C4     O13     1.297   .     A
C4     O12     1.297   1_655 A
C4     C20     1.483   1_654 S
C5     O14     1.227   1_545 D
C5     O15     1.401   1_455 S
C5     C72     1.475   1_455 S
C6     O16     1.278   .     A
C6     O17     1.281   1_554 A
C6     C60     1.476   1_554 S
C7     O19     1.297   .     A
C7     O18     1.297   1_455 A
C7     C34     1.483   1_456 S
O8     Ce1     2.276   1_556 S
O8     C2      1.227   1_545 D
O9     Ce1     2.260   1_466 S
O9     C2      1.401   1_455 S
O11    Ce0     2.285   1_554 S
O11    C3      1.281   1_554 A
O12    Ce0     2.304   1_554 S
O12    C4      1.297   1_455 A
O13    Ce1     2.303   1_565 S
O14    Ce0     2.276   1_554 S
O14    C5      1.227   1_565 D
O15    Ce0     2.259   1_644 S
O15    C5      1.401   1_655 S
O17    Ce1     2.285   1_556 S
O17    C6      1.281   1_556 A
O18    Ce1     2.304   1_556 S
O18    C7      1.297   1_655 A
O19    Ce0     2.304   1_545 S
C20    C21     1.407   1_455 A
C20    C25     1.407   1_556 A
C20    C4      1.483   1_456 S
C21    C22     1.398   .     A
C21    H43     1.083   .     S
C21    C20     1.407   1_655 A
C22    H41     1.082   .     S
C22    C23     1.409   1_556 A
C23    O33     1.406   .     S
C23    C22     1.409   1_554 A
C23    C24     1.399   1_655 A
C24    C25     1.398   .     A
C24    H42     1.083   .     S
C24    C23     1.399   1_455 A
C25    H45     1.083   .     S
C25    C20     1.407   1_554 A
C26    H44     1.088   .     S
C26    O33     1.404   1_556 S
C26    C40     1.333   1_556 D
H27    C35     1.083   .     S
H28    C36     1.082   1_455 S
H29    C38     1.083   .     S
H30    C39     1.083   .     S
H31    C40     1.088   .     S
O32    C37     1.406   .     S
O32    C40     1.404   1_556 S
O33    C26     1.404   1_554 S
C34    C35     1.407   1_655 A
C34    C39     1.407   1_554 A
C34    C7      1.483   1_654 S
C35    C34     1.407   1_455 A
C35    C36     1.398   1_455 A
C36    H28     1.082   1_655 S
C36    C35     1.398   1_655 A
C36    C37     1.409   1_554 A
C37    C38     1.399   .     A
C37    C36     1.409   1_556 A
C38    C39     1.398   .     A
C39    C34     1.407   1_556 A
C40    C26     1.333   1_554 D
C40    O32     1.404   1_554 S
C46    C47     1.405   .     A
C46    C51     1.404   1_544 A
C46    C3      1.476   1_544 S
C47    C48     1.398   .     A
C47    H69     1.083   .     S
C48    H67     1.082   .     S
C48    C49     1.410   1_544 A
C49    C50     1.399   .     A
C49    O59     1.406   .     S
C49    C48     1.410   1_566 A
C50    C51     1.398   .     A
C50    H68     1.083   .     S
C51    H71     1.083   .     S
C51    C46     1.404   1_566 A
C52    H70     1.088   .     S
C52    O59     1.405   1_544 S
C52    C66     1.333   1_554 D
H53    C61     1.083   .     S
H54    C62     1.082   .     S
H55    C64     1.083   .     S
H56    C65     1.083   .     S
H57    C66     1.088   1_565 S
O58    C63     1.405   .     S
O58    C66     1.404   1_554 S
O59    C52     1.405   1_566 S
C60    C61     1.405   1_545 A
C60    C65     1.404   1_556 A
C60    C6      1.476   1_556 S
C61    C62     1.398   .     A
C61    C60     1.405   1_565 A
C62    C63     1.410   1_566 A
C63    C64     1.399   .     A
C63    C62     1.410   1_544 A
C64    C65     1.398   .     A
C65    C60     1.404   1_554 A
C66    C52     1.333   1_556 D
C66    H57     1.088   1_545 S
C66    O58     1.404   1_556 S
C72    C73     1.403   .     A
C72    C77     1.405   1_645 A
C72    C5      1.475   1_655 S
C73    C74     1.398   .     A
C73    H95     1.083   .     S
C74    H93     1.082   .     S
C74    C75     1.410   1_645 A
C75    C76     1.400   .     A
C75    O85     1.406   .     S
C75    C74     1.410   1_465 A
C76    C77     1.398   .     A
C76    H94     1.083   .     S
C77    H97     1.083   .     S
C77    C72     1.405   1_465 A
C78    O85     1.404   1_545 S
C78    C92     1.333   1_545 D
C78    H96     1.087   1_455 S
H79    C87     1.083   .     S
H80    C88     1.082   .     S
H81    C90     1.083   .     S
H82    C91     1.083   .     S
H83    C92     1.087   .     S
O84    C89     1.406   1_655 S
O84    C92     1.404   1_645 S
O85    C78     1.404   1_565 S
C86    C87     1.403   .     A
C86    C91     1.404   1_465 A
C86    C2      1.475   1_455 S
C87    C88     1.398   .     A
C88    C89     1.410   1_565 A
C89    O84     1.406   1_455 S
C89    C88     1.410   1_545 A
C89    C90     1.399   1_455 A
C90    C91     1.398   .     A
C90    C89     1.399   1_655 A
C91    C86     1.404   1_645 A
C92    C78     1.333   1_565 D
C92    O84     1.404   1_465 S
H96    C78     1.087   1_655 S
