data_pcu+N394+E15
_audit_creation_date              2023-11-17
_audit_creation_method            'Materials Studio'
_symmetry_space_group_name_H-M    'P1'
_symmetry_Int_Tables_number       1
_symmetry_cell_setting            triclinic
loop_
_symmetry_equiv_pos_as_xyz
  x,y,z
_cell_length_a                    13.4513
_cell_length_b                    10.7551
_cell_length_c                    9.4727
_cell_angle_alpha                 71.8456
_cell_angle_beta                  95.5300
_cell_angle_gamma                 90.1366
loop_
_atom_site_label
_atom_site_type_symbol
_atom_site_fract_x
_atom_site_fract_y
_atom_site_fract_z
_atom_site_U_iso_or_equiv
_atom_site_adp_type
_atom_site_occupancy
Pr0    Pr    0.12179   0.96961   0.06455   0.00000  Uiso   1.00
Pr1    Pr    0.89359  -0.02787   1.06912   0.00000  Uiso   1.00
O2     O     0.91657   0.19130   1.04942   0.00000  Uiso   1.00
O3     O     0.08764   0.18708   0.04410   0.00000  Uiso   1.00
O4     O     0.24597   0.03296   0.91795   0.00000  Uiso   1.00
O5     O     0.28811   0.93402   0.15118   0.00000  Uiso   1.00
O6     O     1.02027   0.91232   0.25220   0.00000  Uiso   1.00
O7     O     0.11598   1.07487   0.24499   0.00000  Uiso   1.00
C8     C     0.92300   0.03414   0.78053   0.00000  Uiso   1.00
C9     C     1.00201   0.24859   0.03223   0.00000  Uiso   1.00
C10    C     0.31645  -0.01029   1.02161   0.00000  Uiso   1.00
C11    C     0.69207   0.98370   0.02279   0.00000  Uiso   1.00
C12    C     0.00641   0.71626   1.02979   0.00000  Uiso   1.00
C13    C     0.05033   1.00992   0.31057   0.00000  Uiso   1.00
O14    O     0.09100   0.77392   0.02832   0.00000  Uiso   1.00
O15    O     0.92289   0.76240   1.05527   0.00000  Uiso   1.00
O16    O     0.73774   0.93951   0.15403   0.00000  Uiso   1.00
O17    O     0.74903   0.01671   0.91817   0.00000  Uiso   1.00
O18    O    -0.00759   0.05225   0.89047   0.00000  Uiso   1.00
O19    O     0.84004   0.01144   0.82323   0.00000  Uiso   1.00
N20    N     0.07135   0.45668  -0.10405   0.00000  Uiso   1.00
N21    N     0.07235   0.57908  -0.10496   0.00000  Uiso   1.00
C22    C     0.00862   0.59516  -0.01047   0.00000  Uiso   1.00
C23    C     0.96284   0.47697   1.05237   0.00000  Uiso   1.00
C24    C     0.00677   0.39137  -0.00938   0.00000  Uiso   1.00
H25    H     0.91327   0.45382   1.13989   0.00000  Uiso   1.00
H26    H     0.11734   0.41750  -0.16338   0.00000  Uiso   1.00
H27    H     0.11917   0.64923  -0.16542   0.00000  Uiso   1.00
N28    N     0.54228   0.06735   0.84915   0.00000  Uiso   1.00
N29    N     0.44451   0.07002   0.84903   0.00000  Uiso   1.00
C30    C     0.42077   0.00586   0.98736   0.00000  Uiso   1.00
C31    C     0.50804   0.96036   0.08132   0.00000  Uiso   1.00
C32    C     0.58343   0.00170   0.98760   0.00000  Uiso   1.00
H33    H     0.51544   0.90474   0.19886   0.00000  Uiso   1.00
H34    H     0.58001   0.11095   0.75543   0.00000  Uiso   1.00
H35    H     0.39504   0.11545   0.75497   0.00000  Uiso   1.00
N36    N     0.86210   0.07790   0.51638   0.00000  Uiso   1.00
N37    N     0.89569   0.07090   0.39311   0.00000  Uiso   1.00
C38    C     0.99476   0.04553   0.41852   0.00000  Uiso   1.00
C39    C     0.02639   1.03551   0.56601   0.00000  Uiso   1.00
C40    C     0.93884   0.05578   0.62396   0.00000  Uiso   1.00
H41    H     0.09939   1.00494   0.62579   0.00000  Uiso   1.00
H42    H     0.78683   0.09179   0.52781   0.00000  Uiso   1.00
H43    H     0.85014   0.07753   0.29540   0.00000  Uiso   1.00
loop_
_geom_bond_atom_site_label_1
_geom_bond_atom_site_label_2
_geom_bond_distance
_geom_bond_site_symmetry_2
_ccdc_geom_bond_type
Pr0    O5      2.298   .     S
Pr0    O7      2.333   .     S
Pr0    O14     2.267   .     S
Pr0    O3      2.329   1_565 S
Pr0    O4      2.244   1_564 S
Pr0    O6      2.277   1_455 S
Pr0    O18     2.254   1_564 S
Pr1    O2      2.328   .     S
Pr1    O17     2.258   .     S
Pr1    O19     2.278   .     S
Pr1    O6      2.251   1_546 S
Pr1    O15     2.337   1_545 S
Pr1    O16     2.304   1_546 S
Pr1    O18     2.212   1_655 S
O2     C9      1.303   1_556 A
O3     Pr0     2.329   1_545 S
O3     C9      1.307   1_455 A
O4     C10     1.272   .     A
O4     Pr0     2.244   1_546 S
O5     C10     1.281   1_564 A
O6     Pr0     2.277   1_655 S
O6     Pr1     2.251   1_564 S
O6     C13     1.374   1_655 S
O7     C13     1.219   .     D
C8     O19     1.222   .     D
C8     C40     1.465   .     S
C8     O18     1.390   1_655 S
C9     O2      1.303   1_554 A
C9     O3      1.307   1_655 A
C9     C24     1.464   1_655 S
C10    C30     1.468   .     S
C10    O5      1.281   1_546 A
C11    O16     1.279   .     A
C11    O17     1.273   1_564 A
C11    C32     1.467   1_564 S
C12    O14     1.294   1_556 A
C12    O15     1.302   1_455 A
C12    C22     1.468   1_556 S
C13    O6      1.374   1_455 S
C13    C38     1.464   1_465 S
O14    C12     1.294   1_554 A
O15    Pr1     2.337   1_565 S
O15    C12     1.302   1_655 A
O16    Pr1     2.304   1_564 S
O17    C11     1.273   1_546 A
O18    Pr0     2.254   1_546 S
O18    Pr1     2.212   1_455 S
O18    C8      1.390   1_455 S
N20    N21     1.314   .     A
N20    C24     1.344   .     A
N20    H26     1.045   .     S
N21    C22     1.346   .     A
N21    H27     1.045   .     S
C22    C23     1.395   1_454 A
C22    C12     1.468   1_554 S
C23    H25     1.082   .     S
C23    C22     1.395   1_656 A
C23    C24     1.394   1_656 A
C24    C23     1.394   1_454 A
C24    C9      1.464   1_455 S
N28    N29     1.315   .     A
N28    C32     1.345   .     A
N28    H34     1.045   .     S
N29    C30     1.346   .     A
N29    H35     1.045   .     S
C30    C31     1.393   1_546 A
C31    H33     1.082   .     S
C31    C30     1.393   1_564 A
C31    C32     1.393   1_564 A
C32    C31     1.393   1_546 A
C32    C11     1.467   1_546 S
N36    N37     1.315   .     A
N36    C40     1.345   .     A
N36    H42     1.045   .     S
N37    C38     1.344   .     A
N37    H43     1.043   .     S
C38    C39     1.392   1_645 A
C38    C13     1.464   1_645 S
C39    H41     1.082   .     S
C39    C38     1.392   1_465 A
C39    C40     1.391   1_465 A
C40    C39     1.391   1_645 A
