data_pcu+N173+E70
_audit_creation_date              2023-11-17
_audit_creation_method            'Materials Studio'
_symmetry_space_group_name_H-M    'P1'
_symmetry_Int_Tables_number       1
_symmetry_cell_setting            triclinic
loop_
_symmetry_equiv_pos_as_xyz
  x,y,z
_cell_length_a                    9.9606
_cell_length_b                    13.1605
_cell_length_c                    9.7836
_cell_angle_alpha                 92.9752
_cell_angle_beta                  96.4332
_cell_angle_gamma                 62.7550
loop_
_atom_site_label
_atom_site_type_symbol
_atom_site_fract_x
_atom_site_fract_y
_atom_site_fract_z
_atom_site_U_iso_or_equiv
_atom_site_adp_type
_atom_site_occupancy
Gd0    Gd    0.03563   0.84956   0.91292   0.00000  Uiso   1.00
Gd1    Gd    0.87442   0.16187  -0.04611   0.00000  Uiso   1.00
O2     O     0.63609   0.17522  -0.05776   0.00000  Uiso   1.00
O3     O     0.82371   1.01552   0.91623   0.00000  Uiso   1.00
O4     O     0.91275   1.01915   0.81336   0.00000  Uiso   1.00
O5     O    -0.13891   0.17744   0.72263   0.00000  Uiso   1.00
O6     O     0.17534   0.67399   0.98545   0.00000  Uiso   1.00
O7     O     0.93140   0.73909   0.96019   0.00000  Uiso   1.00
O8     O     0.21198   0.90711   0.89456   0.00000  Uiso   1.00
C9     C     0.06182   0.65492   0.99452   0.00000  Uiso   1.00
O10    O     0.13061   0.09522  -0.04937   0.00000  Uiso   1.00
O11    O     0.03546   0.90869   0.13527   0.00000  Uiso   1.00
C12    C     0.91387   0.07012   0.70639   0.00000  Uiso   1.00
O13    O     0.91899   0.10230   0.17145   0.00000  Uiso   1.00
O14    O     0.84004   0.34173   1.00202   0.00000  Uiso   1.00
O15    O     0.06339   0.20844  -0.01159   0.00000  Uiso   1.00
C16    C     0.67994   0.06949  -0.07775   0.00000  Uiso   1.00
C17    C     0.98092   0.31386   0.01164   0.00000  Uiso   1.00
C18    C    -0.01226   0.99795   0.21376   0.00000  Uiso   1.00
C19    C     0.23266   0.99611   0.91482   0.00000  Uiso   1.00
N20    N     0.98569   0.50053   0.00733   0.00000  Uiso   1.00
H21    H     0.31599   0.48424   1.13625   0.00000  Uiso   1.00
C22    C     0.08503   0.54295   1.03994   0.00000  Uiso   1.00
C23    C     0.22162   0.46582   1.10521   0.00000  Uiso   1.00
C24    C     0.04928   0.39042   1.04812   0.00000  Uiso   1.00
S25    S     0.23108   0.33572   1.12657   0.00000  Uiso   1.00
N26    N     0.44134   1.05333  -0.06680   0.00000  Uiso   1.00
H27    H     0.45012  -0.17500   0.76802   0.00000  Uiso   1.00
C28    C     0.38325   0.98161   0.88885   0.00000  Uiso   1.00
C29    C     0.47818  -0.10952   0.81359   0.00000  Uiso   1.00
C30    C     0.58218   0.01343   0.89277   0.00000  Uiso   1.00
S31    S     0.64389  -0.10827   0.79494   0.00000  Uiso   1.00
N32    N     0.94638   0.05592   0.45751   0.00000  Uiso   1.00
H33    H     0.15269   0.79083   0.35616   0.00000  Uiso   1.00
C34    C     0.01217   0.97547   0.36276   0.00000  Uiso   1.00
C35    C     0.09387   0.86673   0.41665   0.00000  Uiso   1.00
C36    C     0.97823   1.00708   0.58268   0.00000  Uiso   1.00
S37    S     0.08847   0.86188   0.58862   0.00000  Uiso   1.00
loop_
_geom_bond_atom_site_label_1
_geom_bond_atom_site_label_2
_geom_bond_distance
_geom_bond_site_symmetry_2
_ccdc_geom_bond_type
Gd0    O6      2.187   .     S
Gd0    O8      2.235   .     S
Gd0    O3      2.239   1_455 S
Gd0    O4      2.210   1_455 S
Gd0    O7      2.228   1_455 S
Gd0    O11     2.272   1_556 S
Gd1    O2      2.289   .     S
Gd1    O13     2.233   .     S
Gd1    O5      2.266   1_654 S
Gd1    O10     2.291   1_655 S
Gd1    O14     2.263   1_554 S
Gd1    O15     2.219   1_655 S
O2     C16     1.265   .     A
O3     Gd0     2.239   1_655 S
O3     C16     1.281   1_566 A
O4     Gd0     2.210   1_655 S
O4     C12     1.276   1_565 A
O5     Gd1     2.266   1_456 S
O5     C12     1.270   1_455 A
O6     C9      1.278   .     A
O7     Gd0     2.228   1_655 S
O7     C9      1.285   1_655 A
O8     C19     1.281   .     A
C9     C22     1.468   .     S
C9     O7      1.285   1_455 A
O10    Gd1     2.291   1_455 S
O10    C19     1.294   1_544 A
O11    C18     1.293   .     A
O11    Gd0     2.272   1_554 S
C12    O4      1.276   1_545 A
C12    O5      1.270   1_655 A
C12    C36     1.465   1_545 S
O13    C18     1.289   1_645 A
O14    Gd1     2.263   1_556 S
O14    C17     1.271   1_556 A
O15    Gd1     2.219   1_455 S
O15    C17     1.272   1_455 A
C16    O3      1.281   1_544 A
C16    C30     1.466   1_554 S
C17    O14     1.271   1_554 A
C17    O15     1.272   1_655 A
C17    C24     1.464   1_654 S
C18    C34     1.474   .     S
C18    O13     1.289   1_465 A
C19    C28     1.473   .     S
C19    O10     1.294   1_566 A
N20    C22     1.345   1_654 A
N20    C24     1.350   1_654 A
H21    C23     1.082   .     S
C22    C23     1.377   .     A
C22    N20     1.345   1_456 A
C23    S25     1.694   .     A
C24    S25     1.714   .     A
C24    N20     1.350   1_456 A
C24    C17     1.464   1_456 S
N26    C28     1.347   1_554 A
N26    C30     1.352   1_564 A
H27    C29     1.083   .     S
C28    N26     1.347   1_556 A
C28    C29     1.379   1_565 A
C29    S31     1.688   .     A
C29    C28     1.379   1_545 A
C30    S31     1.712   .     A
C30    N26     1.352   1_546 A
C30    C16     1.466   1_556 S
N32    C34     1.345   1_645 A
N32    C36     1.350   1_545 A
H33    C35     1.082   .     S
C34    C35     1.380   .     A
C34    N32     1.345   1_465 A
C35    S37     1.695   .     A
C36    N32     1.350   1_565 A
C36    S37     1.714   1_655 A
C36    C12     1.465   1_565 S
S37    C36     1.714   1_455 A
