data_pcu+N505+E8
_audit_creation_date              2023-11-17
_audit_creation_method            'Materials Studio'
_symmetry_space_group_name_H-M    'P1'
_symmetry_Int_Tables_number       1
_symmetry_cell_setting            triclinic
loop_
_symmetry_equiv_pos_as_xyz
  x,y,z
_cell_length_a                    11.4269
_cell_length_b                    16.0715
_cell_length_c                    14.8087
_cell_angle_alpha                 85.8133
_cell_angle_beta                  50.6987
_cell_angle_gamma                 94.2499
loop_
_atom_site_label
_atom_site_type_symbol
_atom_site_fract_x
_atom_site_fract_y
_atom_site_fract_z
_atom_site_U_iso_or_equiv
_atom_site_adp_type
_atom_site_occupancy
Yb0    Yb    1.04014   0.12719  -0.12244   0.00000  Uiso   1.00
Yb1    Yb   -0.03991   0.87303   1.12262   0.00000  Uiso   1.00
C2     C    -0.04545   0.72354   1.09688   0.00000  Uiso   1.00
O3     O     0.11942   0.06866   0.72960   0.00000  Uiso   1.00
O4     O     0.91424   0.13035   0.81928   0.00000  Uiso   1.00
O5     O     0.90696   0.00865  -0.00743   0.00000  Uiso   1.00
O6     O     0.78723   0.88579   1.10230   0.00000  Uiso   1.00
O7     O     1.13575   0.25403   0.80015   0.00000  Uiso   1.00
O8     O     0.95254   0.21725  -0.00778   0.00000  Uiso   1.00
O9     O     0.88086   0.93156   0.27056   0.00000  Uiso   1.00
O10    O     0.08601   0.86984   0.18087   0.00000  Uiso   1.00
C11    C     1.00671   0.08822   0.73641   0.00000  Uiso   1.00
O12    O     0.21296   0.11444  -0.10209   0.00000  Uiso   1.00
O13    O     0.09327   0.99156   1.00761   0.00000  Uiso   1.00
O14    O    -0.13556   0.74619   0.20004   0.00000  Uiso   1.00
C15    C     0.79421   0.95024   0.04222   0.00000  Uiso   1.00
O16    O     0.04761   0.78296   1.00797   0.00000  Uiso   1.00
C17    C     1.04560   0.27667  -0.09669   0.00000  Uiso   1.00
C18    C    -0.00644   0.91198   0.26375   0.00000  Uiso   1.00
C19    C     0.20599   0.04999   0.95799   0.00000  Uiso   1.00
C20    C     0.05101   0.53234   0.95180   0.00000  Uiso   1.00
C21    C     0.94907   0.46788   0.04840   0.00000  Uiso   1.00
N22    N     0.85108   0.48792   0.15882   0.00000  Uiso   1.00
C23    C     0.85021   0.56966   0.17716   0.00000  Uiso   1.00
C24    C     0.95202   0.63443   0.08062   0.00000  Uiso   1.00
N25    N     0.05017   0.61393   0.97002   0.00000  Uiso   1.00
N26    N     0.14909   0.51229   0.84139   0.00000  Uiso   1.00
C27    C     0.14998   0.43055   0.82305   0.00000  Uiso   1.00
C28    C     0.04808   0.36578   0.91958   0.00000  Uiso   1.00
N29    N     0.94991   0.38628   0.03018   0.00000  Uiso   1.00
H30    H     0.77083   0.58380   0.26616   0.00000  Uiso   1.00
H31    H     0.22943   0.41640   0.73406   0.00000  Uiso   1.00
C32    C     0.45713   0.96321   0.00650   0.00000  Uiso   1.00
C33    C     0.54307   0.03704   0.99372   0.00000  Uiso   1.00
N34    N     0.51885   0.11344   0.96821   0.00000  Uiso   1.00
C35    C     0.41193   0.11936   0.95527   0.00000  Uiso   1.00
C36    C     0.32389   0.04552   0.96983   0.00000  Uiso   1.00
N37    N     0.35001   0.96916  -0.00592   0.00000  Uiso   1.00
N38    N     0.48138   0.88681   0.03198   0.00000  Uiso   1.00
C39    C     0.58830   0.88089   0.04492   0.00000  Uiso   1.00
C40    C     0.67630   0.95473   0.03041   0.00000  Uiso   1.00
N41    N     0.65018   0.03110   1.00616   0.00000  Uiso   1.00
H42    H     0.39450   0.18108   0.93535   0.00000  Uiso   1.00
H43    H     0.60578   0.81917   0.06478   0.00000  Uiso   1.00
C44    C     0.93885   0.01099   0.50401   0.00000  Uiso   1.00
C45    C     0.06149   0.98922   0.49611   0.00000  Uiso   1.00
N46    N     0.15880   0.94225   0.41334   0.00000  Uiso   1.00
C47    C     0.13910   0.91599   0.33793   0.00000  Uiso   1.00
C48    C     0.01654   0.93778   0.34540   0.00000  Uiso   1.00
N49    N     0.91932  -0.01503   0.42856   0.00000  Uiso   1.00
N50    N     0.84138   0.05785   0.58691   0.00000  Uiso   1.00
C51    C     0.86104   0.08408   0.66235   0.00000  Uiso   1.00
C52    C     0.98375   0.06240   0.65476   0.00000  Uiso   1.00
N53    N     0.08102   1.01525   0.57155   0.00000  Uiso   1.00
H54    H     0.21833   0.87853   0.27297   0.00000  Uiso   1.00
H55    H     0.78162   0.12139   0.72748   0.00000  Uiso   1.00
loop_
_geom_bond_atom_site_label_1
_geom_bond_atom_site_label_2
_geom_bond_distance
_geom_bond_site_symmetry_2
_ccdc_geom_bond_type
Yb0    O5      2.158   .     S
Yb0    O8      2.098   .     S
Yb0    O3      2.102   1_654 S
Yb0    O4      2.096   1_554 S
Yb0    O7      2.099   1_554 S
Yb0    O12     2.200   1_655 S
Yb1    O13     2.158   .     S
Yb1    O16     2.098   .     S
Yb1    O6      2.200   1_455 S
Yb1    O9      2.102   1_456 S
Yb1    O10     2.096   1_556 S
Yb1    O14     2.099   1_556 S
C2     O16     1.292   .     A
C2     O14     1.292   1_556 A
C2     C24     1.471   1_456 S
O3     Yb0     2.102   1_456 S
O3     C11     1.291   1_455 A
O4     C11     1.291   .     A
O4     Yb0     2.096   1_556 S
O5     C15     1.266   1_545 A
O6     Yb1     2.200   1_655 S
O6     C15     1.278   1_556 A
O7     Yb0     2.099   1_556 S
O7     C17     1.292   1_556 A
O8     C17     1.292   .     A
O9     Yb1     2.102   1_654 S
O9     C18     1.291   1_655 A
O10    C18     1.291   .     A
O10    Yb1     2.096   1_554 S
C11    C52     1.470   .     S
C11    O3      1.291   1_655 A
O12    Yb0     2.200   1_455 S
O12    C19     1.278   1_554 A
O13    C19     1.266   1_565 A
O14    Yb1     2.099   1_554 S
O14    C2      1.292   1_554 A
C15    C40     1.471   .     S
C15    O5      1.266   1_565 A
C15    O6      1.278   1_554 A
C17    O7      1.292   1_554 A
C17    C28     1.471   1_654 S
C18    C48     1.470   .     S
C18    O9      1.291   1_455 A
C19    C36     1.471   .     S
C19    O12     1.278   1_556 A
C19    O13     1.266   1_545 A
C20    N25     1.357   .     A
C20    N26     1.357   .     A
C20    C21     1.404   1_456 A
C21    N22     1.357   .     A
C21    N29     1.357   .     A
C21    C20     1.404   1_654 A
N22    C23     1.360   .     A
C23    C24     1.406   .     A
C23    H30     1.082   .     S
C24    N25     1.362   1_654 A
C24    C2      1.471   1_654 S
N25    C24     1.362   1_456 A
N26    C27     1.360   .     A
C27    C28     1.406   .     A
C27    H31     1.082   .     S
C28    N29     1.362   1_456 A
C28    C17     1.471   1_456 S
N29    C28     1.362   1_654 A
C32    N37     1.357   .     A
C32    N38     1.357   .     A
C32    C33     1.403   1_564 A
C33    N34     1.357   .     A
C33    N41     1.357   .     A
C33    C32     1.403   1_546 A
N34    C35     1.360   .     A
C35    C36     1.406   .     A
C35    H42     1.082   .     S
C36    N37     1.360   1_546 A
N37    C36     1.360   1_564 A
N38    C39     1.360   .     A
C39    C40     1.406   .     A
C39    H43     1.082   .     S
C40    N41     1.360   1_564 A
N41    C40     1.360   1_546 A
C44    N49     1.358   .     A
C44    N50     1.357   .     A
C44    C45     1.404   1_645 A
C45    N46     1.357   .     A
C45    N53     1.358   .     A
C45    C44     1.404   1_465 A
N46    C47     1.360   .     A
C47    C48     1.407   .     A
C47    H54     1.082   .     S
C48    N49     1.362   1_465 A
N49    C48     1.362   1_645 A
N50    C51     1.360   .     A
C51    C52     1.407   .     A
C51    H55     1.082   .     S
C52    N53     1.362   1_645 A
N53    C52     1.362   1_465 A
