data_pcu+N139+E59
_audit_creation_date              2023-11-17
_audit_creation_method            'Materials Studio'
_symmetry_space_group_name_H-M    'P1'
_symmetry_Int_Tables_number       1
_symmetry_cell_setting            triclinic
loop_
_symmetry_equiv_pos_as_xyz
  x,y,z
_cell_length_a                    21.4244
_cell_length_b                    19.5711
_cell_length_c                    21.8637
_cell_angle_alpha                 110.7532
_cell_angle_beta                  114.8965
_cell_angle_gamma                 72.4325
loop_
_atom_site_label
_atom_site_type_symbol
_atom_site_fract_x
_atom_site_fract_y
_atom_site_fract_z
_atom_site_U_iso_or_equiv
_atom_site_adp_type
_atom_site_occupancy
C0     C     0.17836  -0.03529   0.23061   0.00000  Uiso   1.00
Sm1    Sm    0.89297   0.00188   0.89203   0.00000  Uiso   1.00
Sm2    Sm    0.09749   0.98783   0.10654   0.00000  Uiso   1.00
C3     C     1.02415   0.07835  -0.00589   0.00000  Uiso   1.00
C4     C     0.19387   0.88559   0.05070   0.00000  Uiso   1.00
O5     O    -0.18091   0.95782   0.78486   0.00000  Uiso   1.00
O6     O     0.86601   0.04918   0.80269   0.00000  Uiso   1.00
O7     O     0.01325   0.93769   0.01022   0.00000  Uiso   1.00
O8     O     0.90130   0.93579   0.96306   0.00000  Uiso   1.00
O9     O     0.83646   0.12167  -0.07720   0.00000  Uiso   1.00
O10    O     0.78897   1.03984   0.91176   0.00000  Uiso   1.00
O11    O     1.18168   0.01688   0.21045   0.00000  Uiso   1.00
O12    O     0.13233   0.92510   0.18675   0.00000  Uiso   1.00
O13    O     0.97063   0.06006   0.99093   0.00000  Uiso   1.00
O14    O     0.08213   0.06603   0.04298   0.00000  Uiso   1.00
O15    O     0.14321   0.87066   1.05398   0.00000  Uiso   1.00
O16    O     0.19517  -0.04699   0.07581   0.00000  Uiso   1.00
C17    C     0.82461   1.00426   0.75941   0.00000  Uiso   1.00
C18    C    -0.04033   0.92373   1.01128   0.00000  Uiso   1.00
C19    C     0.78453   0.10790   0.92474   0.00000  Uiso   1.00
C20    C     0.06816   0.30568   0.99699   0.00000  Uiso   1.00
C21    C     1.09095   0.41918   0.99471   0.00000  Uiso   1.00
H22    H     0.03971   0.69436   0.19834   0.00000  Uiso   1.00
C23    C     0.02546   0.42598   0.06444   0.00000  Uiso   1.00
C24    C     0.03273   0.34859   0.04354   0.00000  Uiso   1.00
N25    N     0.00128   0.82400   0.06848   0.00000  Uiso   1.00
N26    N     1.02062   0.18900   0.96684   0.00000  Uiso   1.00
O27    O     0.98681   0.81824   0.16471   0.00000  Uiso   1.00
O28    O     0.12228   0.18595   0.95299   0.00000  Uiso   1.00
H29    H    -0.00881   0.93833   0.12130   0.00000  Uiso   1.00
H30    H    -0.08998   0.90436   0.06911   0.00000  Uiso   1.00
H31    H     0.06161   0.55869   0.16784   0.00000  Uiso   1.00
H32    H     0.99791   0.68662   0.98482   0.00000  Uiso   1.00
H33    H     1.02019   0.55163   0.95490   0.00000  Uiso   1.00
H34    H     0.03204   0.79934   1.03705   0.00000  Uiso   1.00
H35    H     1.12699   0.31025   0.93900   0.00000  Uiso   1.00
H36    H     1.06609   0.07932   0.92159   0.00000  Uiso   1.00
H37    H     0.97264   0.10005   0.89329   0.00000  Uiso   1.00
H38    H     1.11463   0.44545   0.97596   0.00000  Uiso   1.00
H39    H     0.01092   0.32267   0.06444   0.00000  Uiso   1.00
H40    H    -0.00375   0.45761   0.09879   0.00000  Uiso   1.00
H41    H     0.97643   0.22195  -0.02171   0.00000  Uiso   1.00
C42    C     0.03575   0.66384   0.14512   0.00000  Uiso   1.00
C43    C     1.00156   0.78402   0.11243   0.00000  Uiso   1.00
C44    C    -0.03621   0.90048   0.07133   0.00000  Uiso   1.00
C45    C     1.04302   0.54454   0.05906   0.00000  Uiso   1.00
C46    C     1.01816   0.70160   0.09443   0.00000  Uiso   1.00
C47    C     0.04798   0.58618   0.12763   0.00000  Uiso   1.00
C48    C     1.01329   0.65978   1.02584   0.00000  Uiso   1.00
C49    C     1.02581   0.58220   1.00848   0.00000  Uiso   1.00
C50    C     1.09839   0.34179   0.97395   0.00000  Uiso   1.00
C51    C     0.07354   0.22381   0.97190   0.00000  Uiso   1.00
C52    C     1.02110   0.10913   0.93923   0.00000  Uiso   1.00
C53    C     0.05374   0.46218   1.03959   0.00000  Uiso   1.00
C54    C     0.59649   0.11230  -0.00888   0.00000  Uiso   1.00
C55    C     0.49929   0.10998   0.01998   0.00000  Uiso   1.00
H56    H     0.35376   0.86158   0.86599   0.00000  Uiso   1.00
C57    C     0.55453   0.99691   0.95625   0.00000  Uiso   1.00
C58    C     0.60090   1.03574  -0.04132   0.00000  Uiso   1.00
N59    N     0.29938   0.86492   0.02574   0.00000  Uiso   1.00
N60    N     0.67160   0.13096   0.93663   0.00000  Uiso   1.00
O61    O     0.26266   0.84880   0.90713   0.00000  Uiso   1.00
O62    O     0.65887   0.20978   0.03943   0.00000  Uiso   1.00
H63    H     0.21943   0.79901   0.96775   0.00000  Uiso   1.00
H64    H     0.27248   0.78872   0.05437   0.00000  Uiso   1.00
H65    H     0.43737   0.92875   0.87433   0.00000  Uiso   1.00
H66    H     0.36558  -0.01619   0.07733   0.00000  Uiso   1.00
H67    H     0.45211   0.04743   0.08678   0.00000  Uiso   1.00
H68    H     0.33653  -0.11751   0.07495   0.00000  Uiso   1.00
H69    H     0.54142   0.20769   0.04825   0.00000  Uiso   1.00
H70    H     0.74302   0.20700  -0.01193   0.00000  Uiso   1.00
H71    H     0.69970   0.19362   0.89461   0.00000  Uiso   1.00
H72    H     0.45967   0.13998   0.04312   0.00000  Uiso   1.00
H73    H     0.64075   1.00542   0.93588   0.00000  Uiso   1.00
H74    H     0.55959   0.93781   0.93138   0.00000  Uiso   1.00
H75    H     0.65031   1.09079   0.89123   0.00000  Uiso   1.00
C76    C     0.37488   0.90198   0.91452   0.00000  Uiso   1.00
C77    C     0.30242   0.87511   0.96512   0.00000  Uiso   1.00
C78    C     0.24654   0.82931   0.02225   0.00000  Uiso   1.00
C79    C     0.45199   0.99279   0.98150   0.00000  Uiso   1.00
C80    C     0.35410   0.91577   0.97146   0.00000  Uiso   1.00
C81    C     0.42322   0.93999   0.91948   0.00000  Uiso   1.00
C82    C     0.38230  -0.03080   1.03326   0.00000  Uiso   1.00
C83    C     0.43099   0.00693   0.03831   0.00000  Uiso   1.00
C84    C     0.54586   0.14879   0.02265   0.00000  Uiso   1.00
C85    C     0.64418   0.15416  -0.00796   0.00000  Uiso   1.00
C86    C     0.72390   0.16547   0.93748   0.00000  Uiso   1.00
C87    C     0.50273   0.03372  -0.01376   0.00000  Uiso   1.00
C88    C     0.86687   0.98948   0.55089   0.00000  Uiso   1.00
C89    C     0.89365   0.99140   0.45379   0.00000  Uiso   1.00
H90    H     0.15101   0.08040   0.51431   0.00000  Uiso   1.00
C91    C    -0.01375  -0.01160   0.56549   0.00000  Uiso   1.00
C92    C    -0.06190   0.98736   0.59255   0.00000  Uiso   1.00
N93    N     0.18471   0.94400   0.33582   0.00000  Uiso   1.00
N94    N     0.82975   0.01426   0.65397   0.00000  Uiso   1.00
O95    O     0.18861   0.06144   0.41052   0.00000  Uiso   1.00
O96    O     0.75905   0.97196   0.54038   0.00000  Uiso   1.00
H97    H     0.25729  -0.00521   0.33128   0.00000  Uiso   1.00
H98    H     0.26280   0.89700   0.29038   0.00000  Uiso   1.00
H99    H     0.06678   0.07498   0.55985   0.00000  Uiso   1.00
H100   H     1.05913   0.92161   0.32202   0.00000  Uiso   1.00
H101   H     0.97663   0.91458   0.36862   0.00000  Uiso   1.00
H102   H     0.16932   0.89310   0.32159   0.00000  Uiso   1.00
H103   H     0.79088   0.99259   0.44753   0.00000  Uiso   1.00
H104   H     0.76128   0.95595   0.65511   0.00000  Uiso   1.00
H105   H     0.74114   0.05595   0.68459   0.00000  Uiso   1.00
H106   H     0.87534   0.99402   0.40021   0.00000  Uiso   1.00
H107   H    -0.04284  -0.01588   0.64597   0.00000  Uiso   1.00
H108   H     0.04079  -0.01340   0.59879   0.00000  Uiso   1.00
H109   H     0.86754   0.04787   0.68510   0.00000  Uiso   1.00
C110   C     0.11322   0.04397   0.48198   0.00000  Uiso   1.00
C111   C     0.16381   0.00506   0.38794   0.00000  Uiso   1.00
C112   C     0.22577   0.95004   0.29946   0.00000  Uiso   1.00
C113   C     0.01552  -0.00610   0.46801   0.00000  Uiso   1.00
C114   C     0.11268   0.00060   0.41502   0.00000  Uiso   1.00
C115   C     0.06536   0.04050   0.50824   0.00000  Uiso   1.00
C116   C     1.06241  -0.04563   0.37448   0.00000  Uiso   1.00
C117   C     1.01441   0.95104   0.40079   0.00000  Uiso   1.00
C118   C     0.84534   0.99080   0.48096   0.00000  Uiso   1.00
C119   C     0.81515   0.99039   0.57992   0.00000  Uiso   1.00
C120   C     0.78431   0.00712   0.68524   0.00000  Uiso   1.00
C121   C     0.96450   0.99081   0.49595   0.00000  Uiso   1.00
loop_
_geom_bond_atom_site_label_1
_geom_bond_atom_site_label_2
_geom_bond_distance
_geom_bond_site_symmetry_2
_ccdc_geom_bond_type
C0     O11     1.277   1_455 A
C0     O12     1.277   1_545 A
C0     C112    1.491   1_545 S
Sm1    O6      2.239   .     S
Sm1    O13     2.260   .     S
Sm1    O5      2.238   1_645 S
Sm1    O8      2.273   1_545 S
Sm1    O9      2.295   1_556 S
Sm1    O10     2.299   1_545 S
Sm2    O7      2.249   .     S
Sm2    O12     2.238   .     S
Sm2    O11     2.234   1_465 S
Sm2    O14     2.280   1_565 S
Sm2    O15     2.294   1_554 S
Sm2    O16     2.301   1_565 S
C3     O13     1.269   1_554 A
C3     O14     1.276   1_655 A
C3     C52     1.493   1_554 S
C4     C78     1.493   .     S
C4     O15     1.241   1_554 S
C4     O16     1.241   1_565 D
O5     Sm1     2.238   1_465 S
O5     C17     1.276   1_455 D
O6     C17     1.276   1_545 S
O7     C18     1.268   1_554 A
O8     Sm1     2.273   1_565 S
O8     C18     1.272   1_655 A
O9     Sm1     2.295   1_554 S
O9     C19     1.241   1_554 A
O10    Sm1     2.299   1_565 S
O10    C19     1.242   1_565 A
O11    C0      1.277   1_655 A
O11    Sm2     2.234   1_645 S
O12    C0      1.277   1_565 A
O13    C3      1.269   1_556 A
O14    Sm2     2.280   1_545 S
O14    C3      1.276   1_455 A
O15    Sm2     2.294   1_556 S
O15    C4      1.241   1_556 S
O16    Sm2     2.301   1_545 S
O16    C4      1.241   1_545 D
C17    O5      1.276   1_655 D
C17    O6      1.276   1_565 S
C17    C120    1.495   1_565 S
C18    O7      1.268   1_556 A
C18    O8      1.272   1_455 A
C18    C44     1.497   1_556 S
C19    C86     1.494   .     S
C19    O9      1.241   1_556 A
C19    O10     1.242   1_545 A
C20    C51     1.483   .     S
C20    C24     1.406   1_556 A
C20    C50     1.406   1_455 A
C21    H38     1.082   .     S
C21    C50     1.398   .     A
C21    C53     1.405   1_655 A
H22    C42     1.083   .     S
C23    C24     1.398   .     A
C23    H40     1.082   .     S
C23    C53     1.405   1_554 A
C24    H39     1.082   .     S
C24    C20     1.406   1_554 A
N25    C44     1.463   .     S
N25    H34     1.046   1_554 S
N25    C43     1.436   1_455 S
N26    C52     1.461   .     S
N26    H41     1.045   1_556 S
N26    C51     1.438   1_655 S
O27    C43     1.220   .     D
O28    C51     1.221   .     D
H29    C44     1.112   .     S
H30    C44     1.113   .     S
H31    C47     1.083   .     S
H32    C48     1.081   .     S
H33    C49     1.083   .     S
H34    N25     1.046   1_556 S
H35    C50     1.083   .     S
H36    C52     1.110   .     S
H37    C52     1.107   .     S
H41    N26     1.045   1_554 S
C42    C47     1.399   .     A
C42    C46     1.406   1_455 A
C43    C46     1.485   .     S
C43    N25     1.436   1_655 S
C44    C18     1.497   1_554 S
C45    C47     1.405   1_655 A
C45    C49     1.405   1_554 A
C45    C53     1.485   1_654 S
C46    C42     1.406   1_655 A
C46    C48     1.407   1_554 A
C47    C45     1.405   1_455 A
C48    C49     1.397   .     A
C48    C46     1.407   1_556 A
C49    C45     1.405   1_556 A
C50    C20     1.406   1_655 A
C51    N26     1.438   1_455 S
C52    C3      1.493   1_556 S
C53    C21     1.405   1_455 A
C53    C23     1.405   1_556 A
C53    C45     1.485   1_456 S
C54    C84     1.405   .     A
C54    C85     1.481   .     S
C54    C58     1.405   1_545 A
C55    H72     1.082   .     S
C55    C84     1.397   .     A
C55    C87     1.406   .     A
H56    C76     1.083   .     S
C57    H74     1.083   .     S
C57    C58     1.396   1_556 S
C57    C87     1.406   1_566 D
C58    C54     1.405   1_565 A
C58    C57     1.396   1_554 S
C58    H73     1.083   1_554 S
N59    C78     1.462   .     S
N59    H68     1.045   1_565 S
N59    C77     1.438   1_554 S
N60    C86     1.464   .     S
N60    H75     1.046   1_545 S
N60    C85     1.438   1_556 S
O61    C77     1.221   .     D
O62    C85     1.221   .     D
H63    C78     1.111   1_556 S
H64    C78     1.111   .     S
H65    C81     1.083   .     S
H66    C82     1.083   1_554 S
H67    C83     1.083   .     S
H68    N59     1.045   1_545 S
H69    C84     1.083   .     S
H70    C86     1.111   1_554 S
H71    C86     1.111   .     S
H73    C58     1.083   1_556 S
H75    N60     1.046   1_565 S
C76    C80     1.406   .     A
C76    C81     1.397   .     A
C77    C80     1.484   .     S
C77    N59     1.438   1_556 S
C78    H63     1.111   1_554 S
C79    C81     1.405   .     A
C79    C83     1.405   1_566 A
C79    C87     1.485   1_566 S
C80    C82     1.406   1_565 A
C82    H66     1.083   1_556 S
C82    C80     1.406   1_545 A
C82    C83     1.398   1_556 A
C83    C79     1.405   1_544 A
C83    C82     1.398   1_554 A
C85    N60     1.438   1_554 S
C86    H70     1.111   1_556 S
C87    C57     1.406   1_544 D
C87    C79     1.485   1_544 S
C88    C118    1.407   .     A
C88    C119    1.484   .     S
C88    C92     1.406   1_655 A
C89    H106    1.083   .     S
C89    C118    1.398   .     A
C89    C121    1.405   .     A
H90    C110    1.083   .     S
C91    H108    1.083   .     S
C91    C92     1.396   1_545 A
C91    C121    1.404   1_445 A
C92    C88     1.406   1_455 A
C92    C91     1.396   1_565 A
C92    H107    1.082   1_565 S
N93    H102    1.044   .     S
N93    C112    1.462   .     S
N93    C111    1.438   1_565 S
N94    H109    1.045   .     S
N94    C120    1.465   .     S
N94    C119    1.436   1_545 S
O95    C111    1.221   .     D
O96    C119    1.220   .     D
H97    C112    1.112   1_545 S
H98    C112    1.112   .     S
H99    C115    1.083   .     S
H100   C116    1.082   1_565 S
H101   C117    1.083   .     S
H103   C118    1.083   .     S
H104   C120    1.112   1_565 S
H105   C120    1.111   .     S
H107   C92     1.082   1_545 S
C110   C114    1.405   .     A
C110   C115    1.397   .     A
C111   C114    1.483   .     S
C111   N93     1.438   1_545 S
C112   H97     1.112   1_565 S
C112   C0      1.491   1_565 S
C113   C115    1.405   .     A
C113   C117    1.405   1_445 A
C113   C121    1.483   1_445 S
C114   C116    1.407   1_455 A
C116   H100    1.082   1_545 S
C116   C114    1.407   1_655 A
C116   C117    1.399   1_545 A
C117   C113    1.405   1_665 A
C117   C116    1.399   1_565 A
C119   N94     1.436   1_565 S
C120   H104    1.112   1_545 S
C120   C17     1.495   1_545 S
C121   C91     1.404   1_665 A
C121   C113    1.483   1_665 S
