data_pcu+N106+E28
_audit_creation_date              2023-11-17
_audit_creation_method            'Materials Studio'
_symmetry_space_group_name_H-M    'P1'
_symmetry_Int_Tables_number       1
_symmetry_cell_setting            triclinic
loop_
_symmetry_equiv_pos_as_xyz
  x,y,z
_cell_length_a                    22.8222
_cell_length_b                    19.8913
_cell_length_c                    18.3964
_cell_angle_alpha                 75.6058
_cell_angle_beta                  60.1556
_cell_angle_gamma                 85.9382
loop_
_atom_site_label
_atom_site_type_symbol
_atom_site_fract_x
_atom_site_fract_y
_atom_site_fract_z
_atom_site_U_iso_or_equiv
_atom_site_adp_type
_atom_site_occupancy
Y0     Y     0.92273   0.00630   0.01674   0.00000  Uiso   1.00
Y1     Y     0.07477   0.99965   0.98239   0.00000  Uiso   1.00
O2     O     0.95310   0.11959  -0.01497   0.00000  Uiso   1.00
O3     O     1.02614   0.04608   0.90231   0.00000  Uiso   1.00
C4     C     0.19114   1.00116   0.98664   0.00000  Uiso   1.00
O5     O     0.10294   0.97492   0.85524   0.00000  Uiso   1.00
O6     O     0.81022  -0.01798   0.08030   0.00000  Uiso   1.00
O7     O     0.86288   0.02789   0.94693   0.00000  Uiso   1.00
O8     O     0.04309   0.10670   1.00549   0.00000  Uiso   1.00
O9     O    -0.02865   0.95985   0.09682   0.00000  Uiso   1.00
O10    O     0.89456   0.03101   0.14388   0.00000  Uiso   1.00
O11    O     0.95435   0.89920  -0.00624   0.00000  Uiso   1.00
C12    C    -0.00183   0.14424   0.99546   0.00000  Uiso   1.00
O13    O     0.04451   0.88637   1.01386   0.00000  Uiso   1.00
C14    C     0.06078   1.00778   0.84234   0.00000  Uiso   1.00
O15    O     0.18718   1.02459   0.91899   0.00000  Uiso   1.00
O16    O     0.13476   0.97730   0.05200   0.00000  Uiso   1.00
C17    C     0.80638   0.00467   0.01245   0.00000  Uiso   1.00
C18    C     0.99938   0.86171   0.00356   0.00000  Uiso   1.00
C19    C     0.93667  -0.00190   0.15684   0.00000  Uiso   1.00
C20    C    -0.00097   0.64557   1.00112   0.00000  Uiso   1.00
C21    C     0.04440   0.67338   0.01846   0.00000  Uiso   1.00
C22    C     0.04446   0.74342   0.01937   0.00000  Uiso   1.00
C23    C    -0.00099   0.78731   1.00323   0.00000  Uiso   1.00
C24    C    -0.04639   0.75953   0.98594   0.00000  Uiso   1.00
C25    C    -0.04637   0.68952   0.98488   0.00000  Uiso   1.00
C26    C    -0.00100   0.57125   1.00009   0.00000  Uiso   1.00
N27    N    -0.04332   0.54473   0.98074   0.00000  Uiso   1.00
N28    N    -0.04346   0.47796   0.97998   0.00000  Uiso   1.00
C29    C    -0.00128   0.43477   0.99855   0.00000  Uiso   1.00
N30    N     0.04105   0.46129   0.01790   0.00000  Uiso   1.00
N31    N     0.04119   0.52807   0.01864   0.00000  Uiso   1.00
C32    C    -0.00127   0.36047   0.99745   0.00000  Uiso   1.00
C33    C     0.04386   0.31642   0.01418   0.00000  Uiso   1.00
C34    C     0.04386   0.24640   0.01319   0.00000  Uiso   1.00
C35    C    -0.00141   0.21866   0.99568   0.00000  Uiso   1.00
C36    C    -0.04663   0.26263   0.97909   0.00000  Uiso   1.00
C37    C    -0.04650   0.33270   0.97985   0.00000  Uiso   1.00
H38    H     0.08011   0.64110   0.03120   0.00000  Uiso   1.00
H39    H     0.08015   0.76311   0.03285   0.00000  Uiso   1.00
H40    H     0.91809   0.79193   0.97288   0.00000  Uiso   1.00
H41    H    -0.08203   0.66992   0.97131   0.00000  Uiso   1.00
H42    H     0.07929   0.33594   0.02820   0.00000  Uiso   1.00
H43    H     0.07918   0.21394   0.02661   0.00000  Uiso   1.00
H44    H     0.91781   0.24297   0.96539   0.00000  Uiso   1.00
H45    H    -0.08203   0.36504   0.96679   0.00000  Uiso   1.00
C46    C     0.37625   0.00238   0.99447   0.00000  Uiso   1.00
C47    C     0.31512  -0.02583   0.06965   0.00000  Uiso   1.00
C48    C     0.25497  -0.02613   0.06705   0.00000  Uiso   1.00
C49    C     0.25466   0.00173   0.98928   0.00000  Uiso   1.00
C50    C     0.31549   1.03002   0.91416   0.00000  Uiso   1.00
C51    C     0.37568   0.03036   0.91668   0.00000  Uiso   1.00
C52    C     0.44013   0.00255   0.99714   0.00000  Uiso   1.00
N53    N     0.49961   0.02784   0.92414   0.00000  Uiso   1.00
N54    N     0.55699   0.02796   0.92651   0.00000  Uiso   1.00
C55    C     0.55739   0.00282   1.00200   0.00000  Uiso   1.00
N56    N     0.49792  -0.02246   0.07500   0.00000  Uiso   1.00
N57    N     0.44054  -0.02261   0.07262   0.00000  Uiso   1.00
C58    C     0.62128   0.00305   1.00466   0.00000  Uiso   1.00
C59    C     0.62134  -0.02195   0.08320   0.00000  Uiso   1.00
C60    C     0.68154  -0.02149   0.08569   0.00000  Uiso   1.00
C61    C     0.74289   0.00396   1.00979   0.00000  Uiso   1.00
C62    C     0.74308   1.02883   0.93126   0.00000  Uiso   1.00
C63    C     0.68292   0.02839   0.92870   0.00000  Uiso   1.00
H64    H     0.31364  -0.04786   0.13064   0.00000  Uiso   1.00
H65    H     0.20869  -0.04827   0.12593   0.00000  Uiso   1.00
H66    H     0.31657   1.05194   0.85338   0.00000  Uiso   1.00
H67    H     0.42174   1.05262   0.85760   0.00000  Uiso   1.00
H68    H     0.57487  -0.04183   0.14293   0.00000  Uiso   1.00
H69    H     0.68005  -0.04095   0.14710   0.00000  Uiso   1.00
H70    H     0.78978   1.04866   0.87176   0.00000  Uiso   1.00
H71    H     0.68483   1.04798   0.86708   0.00000  Uiso   1.00
C72    C     0.97256  -0.00019   0.36455   0.00000  Uiso   1.00
C73    C     0.00689   0.95544   0.30937   0.00000  Uiso   1.00
C74    C    -0.00553   0.95439   0.24253   0.00000  Uiso   1.00
C75    C     0.94788  -0.00208   0.22912   0.00000  Uiso   1.00
C76    C     0.91328   0.04207   0.28417   0.00000  Uiso   1.00
C77    C     0.92541   0.04295   0.35131   0.00000  Uiso   1.00
C78    C     0.98601   0.00125   0.43518   0.00000  Uiso   1.00
N79    N     0.95107   0.04198   0.49071   0.00000  Uiso   1.00
N80    N     0.96325   0.04340   0.55402   0.00000  Uiso   1.00
C81    C     1.01087   0.00409   0.56461   0.00000  Uiso   1.00
N82    N     1.04575   0.96328   0.50916   0.00000  Uiso   1.00
N83    N     1.03361   0.96192   0.44580   0.00000  Uiso   1.00
C84    C     1.02439   0.00560   0.63516   0.00000  Uiso   1.00
C85    C     0.07132   0.96222   0.64864   0.00000  Uiso   1.00
C86    C     0.08364   0.96328   0.71556   0.00000  Uiso   1.00
C87    C     1.04940   0.00779   0.77025   0.00000  Uiso   1.00
C88    C     1.00302   0.05153   0.75662   0.00000  Uiso   1.00
C89    C     0.99047   0.05037   0.68991   0.00000  Uiso   1.00
H90    H     0.04333   0.92133   0.31781   0.00000  Uiso   1.00
H91    H     0.02143   0.91957   0.20123   0.00000  Uiso   1.00
H92    H     0.87712   0.07622   0.27502   0.00000  Uiso   1.00
H93    H     0.89800   0.07770   0.39256   0.00000  Uiso   1.00
H94    H     0.09837   0.92710   0.60778   0.00000  Uiso   1.00
H95    H     0.11961   0.92893   0.72493   0.00000  Uiso   1.00
H96    H     0.97636   0.08667   0.79759   0.00000  Uiso   1.00
H97    H     0.95416   0.08462   0.68135   0.00000  Uiso   1.00
loop_
_geom_bond_atom_site_label_1
_geom_bond_atom_site_label_2
_geom_bond_distance
_geom_bond_site_symmetry_2
_ccdc_geom_bond_type
Y0     O2      2.250   .     S
Y0     O6      2.258   .     S
Y0     O10     2.271   .     S
Y0     O3      2.263   1_554 S
Y0     O7      2.256   1_554 S
Y0     O9      2.250   1_645 S
Y0     O11     2.272   1_545 S
Y1     O5      2.271   .     S
Y1     O13     2.250   .     S
Y1     O15     2.259   .     S
Y1     O3      2.250   1_465 S
Y1     O8      2.272   1_565 S
Y1     O9      2.263   1_556 S
Y1     O16     2.256   1_556 S
O2     C12     1.284   1_654 A
O3     Y0      2.263   1_556 S
O3     Y1      2.250   1_645 S
O3     C14     1.374   1_645 S
C4     O15     1.262   .     A
C4     O16     1.261   1_556 A
C4     C49     1.475   1_565 S
O5     C14     1.213   .     D
O6     C17     1.262   .     A
O7     Y0      2.256   1_556 S
O7     C17     1.261   1_556 A
O8     C12     1.286   .     A
O8     Y1      2.272   1_545 S
O9     Y0      2.250   1_465 S
O9     Y1      2.263   1_554 S
O9     C19     1.374   1_465 S
O10    C19     1.212   .     D
O11    C18     1.286   .     A
O11    Y0      2.272   1_565 S
C12    C35     1.482   .     S
C12    O2      1.284   1_456 A
O13    C18     1.284   1_456 A
C14    O3      1.374   1_465 S
C14    C87     1.473   1_465 S
O16    Y1      2.256   1_554 S
O16    C4      1.261   1_554 A
C17    O7      1.261   1_554 A
C17    C61     1.475   1_554 S
C18    O13     1.284   1_654 A
C18    C23     1.482   1_654 S
C19    C75     1.473   .     S
C19    O9      1.374   1_645 S
C20    C25     1.406   .     A
C20    C26     1.483   .     S
C20    C21     1.406   1_556 A
C21    C22     1.398   .     A
C21    H38     1.083   .     S
C21    C20     1.406   1_554 A
C22    H39     1.083   .     S
C22    C23     1.406   1_554 A
C23    C24     1.406   .     A
C23    C22     1.406   1_556 A
C23    C18     1.482   1_456 S
C24    C25     1.398   .     A
C24    H40     1.083   1_455 S
C25    H41     1.083   .     S
C26    N27     1.358   .     A
C26    N31     1.358   1_556 A
N27    N28     1.332   .     A
N28    C29     1.358   .     A
C29    C32     1.483   .     S
C29    N30     1.358   1_556 A
N30    N31     1.332   .     A
N30    C29     1.358   1_554 A
N31    C26     1.358   1_554 A
C32    C37     1.406   .     A
C32    C33     1.406   1_556 A
C33    C34     1.398   .     A
C33    H42     1.083   .     S
C33    C32     1.406   1_554 A
C34    H43     1.083   .     S
C34    C35     1.406   1_554 A
C35    C36     1.406   .     A
C35    C34     1.406   1_556 A
C36    C37     1.398   .     A
C36    H44     1.083   1_455 S
C37    H45     1.083   .     S
H40    C24     1.083   1_655 S
H44    C36     1.083   1_655 S
C46    C51     1.407   .     A
C46    C52     1.483   .     S
C46    C47     1.407   1_556 A
C47    C48     1.398   .     A
C47    H64     1.083   .     S
C47    C46     1.407   1_554 A
C48    H65     1.083   .     S
C48    C49     1.403   1_554 A
C49    C48     1.403   1_556 A
C49    C50     1.403   1_545 A
C49    C4      1.475   1_545 S
C50    H66     1.083   .     S
C50    C49     1.403   1_565 A
C50    C51     1.398   1_565 A
C51    C50     1.398   1_545 A
C51    H67     1.083   1_545 S
C52    N53     1.358   .     A
C52    N57     1.359   1_556 A
N53    N54     1.332   .     A
N54    C55     1.359   .     A
C55    C58     1.483   .     S
C55    N56     1.358   1_556 A
N56    N57     1.332   .     A
N56    C55     1.358   1_554 A
N57    C52     1.359   1_554 A
C58    C63     1.407   .     A
C58    C59     1.407   1_556 A
C59    C60     1.398   .     A
C59    H68     1.083   .     S
C59    C58     1.407   1_554 A
C60    H69     1.083   .     S
C60    C61     1.403   1_554 A
C61    C60     1.403   1_556 A
C61    C62     1.404   1_545 A
C61    C17     1.475   1_556 S
C62    H70     1.083   .     S
C62    C61     1.404   1_565 A
C62    C63     1.398   1_565 A
C63    C62     1.398   1_545 A
C63    H71     1.083   1_545 S
H67    C51     1.083   1_565 S
H71    C63     1.083   1_565 S
C72    C77     1.407   .     A
C72    C78     1.483   .     S
C72    C73     1.407   1_645 A
C73    C74     1.397   .     A
C73    H90     1.083   .     S
C73    C72     1.407   1_465 A
C74    H91     1.083   .     S
C74    C75     1.402   1_465 A
C75    C76     1.403   .     A
C75    C74     1.402   1_645 A
C76    C77     1.398   .     A
C76    H92     1.083   .     S
C77    H93     1.083   .     S
C78    N79     1.358   .     A
C78    N83     1.358   1_545 A
N79    N80     1.332   .     A
N80    C81     1.358   .     A
C81    C84     1.483   .     S
C81    N82     1.358   1_545 A
N82    N83     1.332   .     A
N82    C81     1.358   1_565 A
N83    C78     1.358   1_565 A
C84    C89     1.407   .     A
C84    C85     1.407   1_645 A
C85    C86     1.398   .     A
C85    H94     1.083   .     S
C85    C84     1.407   1_465 A
C86    H95     1.083   .     S
C86    C87     1.403   1_465 A
C87    C88     1.402   .     A
C87    C86     1.403   1_645 A
C87    C14     1.473   1_645 S
C88    C89     1.398   .     A
C88    H96     1.083   .     S
C89    H97     1.083   .     S
