data_pcu+N205+E14
_audit_creation_date              2023-11-17
_audit_creation_method            'Materials Studio'
_symmetry_space_group_name_H-M    'P1'
_symmetry_Int_Tables_number       1
_symmetry_cell_setting            triclinic
loop_
_symmetry_equiv_pos_as_xyz
  x,y,z
_cell_length_a                    11.7838
_cell_length_b                    14.6968
_cell_length_c                    10.5985
_cell_angle_alpha                 81.9289
_cell_angle_beta                  94.9620
_cell_angle_gamma                 90.1221
loop_
_atom_site_label
_atom_site_type_symbol
_atom_site_fract_x
_atom_site_fract_y
_atom_site_fract_z
_atom_site_U_iso_or_equiv
_atom_site_adp_type
_atom_site_occupancy
Y0     Y     0.05023   0.12319  -0.01059   0.00000  Uiso   1.00
Y1     Y     0.95009   0.87699   1.01068   0.00000  Uiso   1.00
C2     C     0.73171   0.93560   1.00473   0.00000  Uiso   1.00
C3     C     0.99379  -0.00677   0.22807   0.00000  Uiso   1.00
C4     C     0.02634   0.30560  -0.00570   0.00000  Uiso   1.00
C5     C     0.26871   0.06478  -0.00452   0.00000  Uiso   1.00
C6     C     0.00653   1.00690   0.77201   0.00000  Uiso   1.00
C7     C     0.97371   0.69454   1.00594   0.00000  Uiso   1.00
O8     O     0.79521   0.95851   0.91626   0.00000  Uiso   1.00
O9     O     0.78080   0.88140   0.09549   0.00000  Uiso   1.00
O10    O     0.94959   0.05938   0.14907   0.00000  Uiso   1.00
O11    O     1.03491   0.92413   0.18723   0.00000  Uiso   1.00
O12    O    -0.00753   0.26614   0.90001   0.00000  Uiso   1.00
O13    O     0.07337   0.25063   0.08563   0.00000  Uiso   1.00
O14    O     0.20510   0.04166   0.08380   0.00000  Uiso   1.00
O15    O     0.21966   0.11905   0.90479   0.00000  Uiso   1.00
O16    O     0.05077   0.94077   0.85102   0.00000  Uiso   1.00
O17    O    -0.03450   0.07604   0.81283   0.00000  Uiso   1.00
O18    O     1.00773   0.73403   0.10016   0.00000  Uiso   1.00
O19    O     0.92669   0.74950   0.91460   0.00000  Uiso   1.00
C20    C     0.04159   0.53832   0.10839   0.00000  Uiso   1.00
C21    C    -0.01294   0.59507   0.00303   0.00000  Uiso   1.00
C22    C     0.94541   0.55599   0.89483   0.00000  Uiso   1.00
C23    C     0.95824   0.46178   0.89195   0.00000  Uiso   1.00
C24    C     0.01282   0.40503  -0.00271   0.00000  Uiso   1.00
C25    C     0.05431   0.44409   0.10557   0.00000  Uiso   1.00
H26    H     0.07450   0.56679   0.19295   0.00000  Uiso   1.00
H27    H     0.90298   0.59826   0.81237   0.00000  Uiso   1.00
H28    H     0.92552   0.43335   0.80730   0.00000  Uiso   1.00
H29    H     0.09677   0.40182   0.18802   0.00000  Uiso   1.00
C30    C     0.45214   0.05979  -0.10538   0.00000  Uiso   1.00
C31    C     0.38717   0.03194  -0.00202   0.00000  Uiso   1.00
C32    C     0.43617   0.97205   1.10348   0.00000  Uiso   1.00
C33    C     0.54833   0.94069   1.10566   0.00000  Uiso   1.00
C34    C     0.61330  -0.03147   0.00229   0.00000  Uiso   1.00
C35    C     0.56431   0.02842  -0.10320   0.00000  Uiso   1.00
H36    H     0.41622   0.10580  -0.18795   0.00000  Uiso   1.00
H37    H     0.38772   0.94940   1.18428   0.00000  Uiso   1.00
H38    H     0.58423   0.89463   1.18820   0.00000  Uiso   1.00
H39    H     0.61272   0.05101  -0.18403   0.00000  Uiso   1.00
C40    C     0.95424   0.07382   0.41309   0.00000  Uiso   1.00
C41    C    -0.00301  -0.00334   0.36722   0.00000  Uiso   1.00
C42    C     0.04273   0.92285   0.45563   0.00000  Uiso   1.00
C43    C     0.04583   0.92620   0.58701   0.00000  Uiso   1.00
C44    C     0.00319   0.00341   0.63287   0.00000  Uiso   1.00
C45    C     0.95726   0.07715   0.54446   0.00000  Uiso   1.00
H46    H     0.91856   0.13187   0.34744   0.00000  Uiso   1.00
H47    H     0.07601   0.86230   0.42338   0.00000  Uiso   1.00
H48    H     0.08165   0.86821   0.65267   0.00000  Uiso   1.00
H49    H     0.92396   0.13770   0.57670   0.00000  Uiso   1.00
loop_
_geom_bond_atom_site_label_1
_geom_bond_atom_site_label_2
_geom_bond_distance
_geom_bond_site_symmetry_2
_ccdc_geom_bond_type
Y0     O13     2.260   .     S
Y0     O14     2.264   .     S
Y0     O10     2.246   1_455 S
Y0     O12     2.261   1_554 S
Y0     O15     2.263   1_554 S
Y0     O17     2.240   1_554 S
Y1     O8      2.264   .     S
Y1     O19     2.260   .     S
Y1     O9      2.263   1_556 S
Y1     O11     2.240   1_556 S
Y1     O16     2.246   1_655 S
Y1     O18     2.261   1_556 S
C2     O8      1.259   .     A
C2     O9      1.259   1_556 A
C2     C34     1.475   1_566 S
C3     O10     1.271   .     A
C3     O11     1.271   1_545 A
C3     C41     1.480   1_655 S
C4     O13     1.259   .     A
C4     C24     1.475   .     S
C4     O12     1.260   1_554 A
C5     O14     1.259   .     A
C5     C31     1.475   .     S
C5     O15     1.259   1_554 A
C6     O16     1.271   .     A
C6     O17     1.271   1_565 A
C6     C44     1.480   1_565 S
C7     O19     1.260   .     A
C7     O18     1.260   1_556 A
C7     C21     1.475   1_656 S
O9     Y1      2.263   1_554 S
O9     C2      1.259   1_554 A
O10    Y0      2.246   1_655 S
O11    Y1      2.240   1_554 S
O11    C3      1.271   1_565 A
O12    Y0      2.261   1_556 S
O12    C4      1.260   1_556 A
O15    Y0      2.263   1_556 S
O15    C5      1.259   1_556 A
O16    Y1      2.246   1_455 S
O17    Y0      2.240   1_556 S
O17    C6      1.271   1_545 A
O18    Y1      2.261   1_554 S
O18    C7      1.260   1_554 A
C20    C21     1.404   .     A
C20    C25     1.398   .     A
C20    H26     1.083   .     S
C21    C22     1.404   1_454 A
C21    C7      1.475   1_454 S
C22    C23     1.398   .     A
C22    H27     1.083   .     S
C22    C21     1.404   1_656 A
C23    H28     1.083   .     S
C23    C24     1.404   1_656 A
C24    C25     1.404   .     A
C24    C23     1.404   1_454 A
C25    H29     1.083   .     S
C30    C31     1.404   .     A
C30    C35     1.398   .     A
C30    H36     1.083   .     S
C31    C32     1.404   1_544 A
C32    C33     1.398   .     A
C32    H37     1.083   .     S
C32    C31     1.404   1_566 A
C33    H38     1.083   .     S
C33    C34     1.404   1_566 A
C34    C35     1.404   .     A
C34    C33     1.404   1_544 A
C34    C2      1.475   1_544 S
C35    H39     1.083   .     S
C40    C45     1.397   .     A
C40    H46     1.083   .     S
C40    C41     1.406   1_655 A
C41    C40     1.406   1_455 A
C41    C42     1.405   1_545 A
C41    C3      1.480   1_455 S
C42    C43     1.398   .     A
C42    H47     1.083   .     S
C42    C41     1.405   1_565 A
C43    H48     1.083   .     S
C43    C44     1.406   1_565 A
C44    C43     1.406   1_545 A
C44    C45     1.405   1_455 A
C44    C6      1.480   1_545 S
C45    H49     1.083   .     S
C45    C44     1.405   1_655 A
