data_pcu+N173+E15
_audit_creation_date              2023-11-17
_audit_creation_method            'Materials Studio'
_symmetry_space_group_name_H-M    'P1'
_symmetry_Int_Tables_number       1
_symmetry_cell_setting            triclinic
loop_
_symmetry_equiv_pos_as_xyz
  x,y,z
_cell_length_a                    9.6013
_cell_length_b                    13.7006
_cell_length_c                    9.6938
_cell_angle_alpha                 108.9767
_cell_angle_beta                  91.6056
_cell_angle_gamma                 62.2566
loop_
_atom_site_label
_atom_site_type_symbol
_atom_site_fract_x
_atom_site_fract_y
_atom_site_fract_z
_atom_site_U_iso_or_equiv
_atom_site_adp_type
_atom_site_occupancy
Gd0    Gd    0.10717   0.80451   0.91034   0.00000  Uiso   1.00
Gd1    Gd    0.92779   0.17940   0.10073   0.00000  Uiso   1.00
O2     O     0.71365   0.15285   0.06999   0.00000  Uiso   1.00
O3     O     0.86279   0.96260   0.97728   0.00000  Uiso   1.00
O4     O     0.97001   0.90767   0.76367   0.00000  Uiso   1.00
O5     O    -0.00423   0.07289   0.84507   0.00000  Uiso   1.00
O6     O     0.18179   0.68782   1.03820   0.00000  Uiso   1.00
O7     O     0.99528   0.69289   0.90411   0.00000  Uiso   1.00
O8     O     0.28318   0.87710   0.95332   0.00000  Uiso   1.00
C9     C     0.08143   0.65141   0.99645   0.00000  Uiso   1.00
O10    O     0.12219   0.04130  -0.08002   0.00000  Uiso   1.00
O11    O    -0.04237   0.91903   0.13306   0.00000  Uiso   1.00
C12    C     0.94958   0.00416   0.75213   0.00000  Uiso   1.00
O13    O     1.04458   0.04837   0.21465   0.00000  Uiso   1.00
O14    O     0.88168   0.32927   1.02920   0.00000  Uiso   1.00
O15    O     0.08658   0.25761   0.13623   0.00000  Uiso   1.00
C16    C     0.72499   0.05178   0.01503   0.00000  Uiso   1.00
C17    C     1.00195   0.33645   0.08199   0.00000  Uiso   1.00
C18    C    -0.02091   0.99240   0.23846   0.00000  Uiso   1.00
C19    C     0.25768   0.97462   0.94390   0.00000  Uiso   1.00
N20    N     0.09856   0.47666   0.20577   0.00000  Uiso   1.00
N21    N     0.11491   0.56178   0.18609   0.00000  Uiso   1.00
C22    C     0.06641   0.57133   0.05655   0.00000  Uiso   1.00
C23    C     0.01342   0.48970   0.99208   0.00000  Uiso   1.00
C24    C     0.03888   0.43006   0.08995   0.00000  Uiso   1.00
H25    H    -0.03121   0.47343   0.88725   0.00000  Uiso   1.00
H26    H     1.12314   0.45341   0.30024   0.00000  Uiso   1.00
H27    H     1.15571   0.61437   0.26142   0.00000  Uiso   1.00
N28    N     0.47076   0.12450   0.92340   0.00000  Uiso   1.00
N29    N     0.34982   0.10352   0.90267   0.00000  Uiso   1.00
C30    C     0.37972   0.01005   0.94141   0.00000  Uiso   1.00
C31    C     0.53067   0.96676  -0.01631   0.00000  Uiso   1.00
C32    C     0.58253   0.04405   0.97322   0.00000  Uiso   1.00
H33    H     0.59006   0.89394   0.02249   0.00000  Uiso   1.00
H34    H     0.47581   0.19438   0.90493   0.00000  Uiso   1.00
H35    H     0.24703   0.15456   0.86360   0.00000  Uiso   1.00
N36    N     0.76566   0.03573   0.56749   0.00000  Uiso   1.00
N37    N     0.77333   0.03288   0.43031   0.00000  Uiso   1.00
C38    C     0.91632   0.01919   0.38955   0.00000  Uiso   1.00
C39    C     0.00267   1.01494   0.50609   0.00000  Uiso   1.00
C40    C     0.90353   0.02390   0.61578   0.00000  Uiso   1.00
H41    H     0.12614   0.99543   0.50609   0.00000  Uiso   1.00
H42    H     0.66739   0.04495   0.62699   0.00000  Uiso   1.00
H43    H     0.68213   0.03901   0.36520   0.00000  Uiso   1.00
loop_
_geom_bond_atom_site_label_1
_geom_bond_atom_site_label_2
_geom_bond_distance
_geom_bond_site_symmetry_2
_ccdc_geom_bond_type
Gd0    O6      2.186   .     S
Gd0    O8      2.297   .     S
Gd0    O3      2.249   1_455 S
Gd0    O4      2.285   1_455 S
Gd0    O7      2.228   1_455 S
Gd0    O11     2.249   1_556 S
Gd1    O2      2.245   .     S
Gd1    O13     2.246   .     S
Gd1    O5      2.356   1_654 S
Gd1    O10     2.207   1_655 S
Gd1    O14     2.226   1_554 S
Gd1    O15     2.201   1_655 S
O2     C16     1.263   .     A
O3     Gd0     2.249   1_655 S
O3     C16     1.268   1_566 A
O4     Gd0     2.285   1_655 S
O4     C12     1.285   1_565 A
O5     Gd1     2.356   1_456 S
O5     C12     1.308   1_455 A
O6     C9      1.279   .     A
O7     Gd0     2.228   1_655 S
O7     C9      1.288   1_655 A
O8     C19     1.276   .     A
C9     O7      1.288   1_455 A
C9     C22     1.460   1_556 S
O10    Gd1     2.207   1_455 S
O10    C19     1.263   1_544 A
O11    C18     1.269   .     A
O11    Gd0     2.249   1_554 S
C12    C40     1.451   .     S
C12    O4      1.285   1_545 A
C12    O5      1.308   1_655 A
O13    C18     1.268   1_645 A
O14    Gd1     2.226   1_556 S
O14    C17     1.283   1_556 A
O15    Gd1     2.201   1_455 S
O15    C17     1.277   1_455 A
C16    O3      1.268   1_544 A
C16    C32     1.457   1_554 S
C17    O14     1.283   1_554 A
C17    O15     1.277   1_655 A
C17    C24     1.461   1_655 S
C18    O13     1.268   1_465 A
C18    C38     1.462   1_465 S
C19    O10     1.263   1_566 A
C19    C30     1.466   1_565 S
N20    N21     1.318   .     A
N20    C24     1.355   .     A
N20    H26     1.050   1_455 S
N21    C22     1.352   .     A
N21    H27     1.054   1_455 S
C22    C23     1.399   1_554 A
C22    C9      1.460   1_554 S
C23    H25     1.088   .     S
C23    C22     1.399   1_556 A
C23    C24     1.390   1_556 A
C24    C23     1.390   1_554 A
C24    C17     1.461   1_455 S
H26    N20     1.050   1_655 S
H27    N21     1.054   1_655 S
N28    N29     1.316   .     A
N28    C32     1.347   .     A
N28    H34     1.052   .     S
N29    C30     1.352   .     A
N29    H35     1.056   .     S
C30    C31     1.395   1_546 A
C30    C19     1.466   1_545 S
C31    H33     1.079   .     S
C31    C30     1.395   1_564 A
C31    C32     1.394   1_564 A
C32    C31     1.394   1_546 A
C32    C16     1.457   1_556 S
N36    N37     1.321   .     A
N36    C40     1.346   .     A
N36    H42     1.054   .     S
N37    C38     1.349   .     A
N37    H43     1.052   .     S
C38    C39     1.383   1_645 A
C38    C18     1.462   1_645 S
C39    H41     1.087   .     S
C39    C38     1.383   1_465 A
C39    C40     1.384   1_465 A
C40    C39     1.384   1_645 A
