data_pcu+N123+E1
_audit_creation_date              2023-11-17
_audit_creation_method            'Materials Studio'
_symmetry_space_group_name_H-M    'P1'
_symmetry_Int_Tables_number       1
_symmetry_cell_setting            triclinic
loop_
_symmetry_equiv_pos_as_xyz
  x,y,z
_cell_length_a                    22.6849
_cell_length_b                    20.2223
_cell_length_c                    19.5513
_cell_angle_alpha                 89.9742
_cell_angle_beta                  88.4855
_cell_angle_gamma                 90.0446
loop_
_atom_site_label
_atom_site_type_symbol
_atom_site_fract_x
_atom_site_fract_y
_atom_site_fract_z
_atom_site_U_iso_or_equiv
_atom_site_adp_type
_atom_site_occupancy
Ce0    Ce    0.06220   1.00096   0.99729   0.00000  Uiso   1.00
Ce1    Ce    0.93499   0.00087   0.00142   0.00000  Uiso   1.00
C2     C     0.95181   1.00080   0.86485   0.00000  Uiso   1.00
C3     C     0.18126   1.00103   0.99795   0.00000  Uiso   1.00
C4     C     0.99856   0.85750  -0.00048   0.00000  Uiso   1.00
C5     C     0.04537   0.00105   0.13385   0.00000  Uiso   1.00
C6     C     0.81592   0.00080   0.00075   0.00000  Uiso   1.00
C7     C    -0.00138   0.14433   0.99916   0.00000  Uiso   1.00
O8     O     0.90253   0.00077   0.89224   0.00000  Uiso   1.00
O9     O    -0.00153   1.00085   0.91038   0.00000  Uiso   1.00
O10    O     0.15221   1.00095   0.94280   0.00000  Uiso   1.00
O11    O     0.14943   1.00108   0.05306   0.00000  Uiso   1.00
O12    O     0.04890   0.88799  -0.00123   0.00000  Uiso   1.00
O13    O     0.94823   0.88792   0.00021   0.00000  Uiso   1.00
O14    O     0.09465   1.00110   0.10646   0.00000  Uiso   1.00
O15    O     0.99871   0.00097   0.08832   0.00000  Uiso   1.00
O16    O     0.84497   0.00088   0.05590   0.00000  Uiso   1.00
O17    O     0.84776   0.00075   0.94564   0.00000  Uiso   1.00
O18    O     0.94828   0.11383   0.99992   0.00000  Uiso   1.00
O19    O     0.04895   0.11390   0.99848   0.00000  Uiso   1.00
C20    C     0.99853   0.64427   0.99928   0.00000  Uiso   1.00
C21    C     0.05186   0.67966   0.99967   0.00000  Uiso   1.00
C22    C     0.05189   0.74877   0.99979   0.00000  Uiso   1.00
C23    C     0.99855   0.78415   0.99953   0.00000  Uiso   1.00
C24    C     0.94520   0.74869  -0.00078   0.00000  Uiso   1.00
C25    C     0.94521   0.67959  -0.00091   0.00000  Uiso   1.00
C26    C     0.99853   0.57080   0.99920   0.00000  Uiso   1.00
C27    C     0.95678   0.53535   0.03900   0.00000  Uiso   1.00
C28    C     0.95682   0.46625   0.03900   0.00000  Uiso   1.00
C29    C     0.99861   0.43099   0.99918   0.00000  Uiso   1.00
C30    C     1.04035   0.46643   0.95937   0.00000  Uiso   1.00
C31    C     1.04030   0.53553   0.95936   0.00000  Uiso   1.00
C32    C     0.99862   0.35755   0.99913   0.00000  Uiso   1.00
C33    C     0.05194   0.32225   0.99980   0.00000  Uiso   1.00
C34    C     0.05197   0.25315   0.99977   0.00000  Uiso   1.00
C35    C     0.99863   0.21768   0.99908   0.00000  Uiso   1.00
C36    C     0.94530   0.25305  -0.00170   0.00000  Uiso   1.00
C37    C     0.94532   0.32215  -0.00169   0.00000  Uiso   1.00
H38    H     0.09365   0.65389   1.00082   0.00000  Uiso   1.00
H39    H     0.09379   0.77440   1.00033   0.00000  Uiso   1.00
H40    H     0.90329   0.77428  -0.00112   0.00000  Uiso   1.00
H41    H     0.90342   0.65377  -0.00208   0.00000  Uiso   1.00
H42    H     0.92462   0.56107   0.07107   0.00000  Uiso   1.00
H43    H     0.92467   0.44037   0.07101   0.00000  Uiso   1.00
H44    H     0.07249   0.44069   0.92729   0.00000  Uiso   1.00
H45    H     0.07243   0.56139   0.92731   0.00000  Uiso   1.00
H46    H     0.09371   0.34811   1.00125   0.00000  Uiso   1.00
H47    H     0.09387   0.22757   1.00044   0.00000  Uiso   1.00
H48    H     0.90341   0.22740  -0.00259   0.00000  Uiso   1.00
H49    H     0.90356   0.34793  -0.00324   0.00000  Uiso   1.00
C50    C     0.37081   1.00101   0.99877   0.00000  Uiso   1.00
C51    C     0.34092   1.00060   0.93669   0.00000  Uiso   1.00
C52    C     0.27931   1.00059   0.93642   0.00000  Uiso   1.00
C53    C     0.24633   1.00103   0.99820   0.00000  Uiso   1.00
C54    C     0.27607   1.00148   0.06028   0.00000  Uiso   1.00
C55    C     0.33767   1.00145   0.06057   0.00000  Uiso   1.00
C56    C     0.43629   1.00094   0.99908   0.00000  Uiso   1.00
C57    C     0.46650   0.96237   0.04661   0.00000  Uiso   1.00
C58    C     0.52809   0.96228   0.04688   0.00000  Uiso   1.00
C59    C     0.56090   1.00078   0.99963   0.00000  Uiso   1.00
C60    C     0.53069   1.03936   0.95210   0.00000  Uiso   1.00
C61    C     0.46910   1.03945   0.95183   0.00000  Uiso   1.00
C62    C     0.62637   1.00072   0.99993   0.00000  Uiso   1.00
C63    C     0.65951   1.00025   0.93814   0.00000  Uiso   1.00
C64    C     0.72111   1.00025   0.93843   0.00000  Uiso   1.00
C65    C     0.75085   1.00077   1.00050   0.00000  Uiso   1.00
C66    C     0.71788   1.00125   0.06229   0.00000  Uiso   1.00
C67    C     0.65627   1.00119   0.06202   0.00000  Uiso   1.00
H68    H     0.36518   0.99938   0.88826   0.00000  Uiso   1.00
H69    H     0.25749   0.00005   0.88782   0.00000  Uiso   1.00
H70    H     0.25171   1.00204   0.10867   0.00000  Uiso   1.00
H71    H     0.35939   1.00265   0.10921   0.00000  Uiso   1.00
H72    H     0.44250   0.93137   0.08294   0.00000  Uiso   1.00
H73    H     0.55008   0.93123   0.08342   0.00000  Uiso   1.00
H74    H     0.55469   1.07034   0.91576   0.00000  Uiso   1.00
H75    H     0.44711   1.07050   0.91529   0.00000  Uiso   1.00
H76    H     0.63779   0.99900   0.88950   0.00000  Uiso   1.00
H77    H     0.74547  -0.00032   0.89004   0.00000  Uiso   1.00
H78    H     0.73970   1.00186   0.11089   0.00000  Uiso   1.00
H79    H     0.63200   1.00243   0.11045   0.00000  Uiso   1.00
C80    C     0.01760   0.00109   0.35217   0.00000  Uiso   1.00
C81    C     0.96949   0.00008   0.30829   0.00000  Uiso   1.00
C82    C     0.97864   0.00011   0.23732   0.00000  Uiso   1.00
C83    C     0.03605   0.00107   0.20880   0.00000  Uiso   1.00
C84    C     0.08420   1.00208   0.25245   0.00000  Uiso   1.00
C85    C     0.07507   1.00213   0.32343   0.00000  Uiso   1.00
C86    C     0.00787   0.00106   0.42760   0.00000  Uiso   1.00
C87    C     0.04279   1.04062   0.46960   0.00000  Uiso   1.00
C88    C     0.03361   1.04059   0.54056   0.00000  Uiso   1.00
C89    C    -0.01069   0.00100   0.57115   0.00000  Uiso   1.00
C90    C     0.95437  -0.03854   0.52917   0.00000  Uiso   1.00
C91    C     0.96357  -0.03855   0.45822   0.00000  Uiso   1.00
C92    C    -0.02042   0.00094   0.64655   0.00000  Uiso   1.00
C93    C     0.92210   0.00065   0.67527   0.00000  Uiso   1.00
C94    C     0.91296   0.00062   0.74625   0.00000  Uiso   1.00
C95    C    -0.03886   0.00079   0.78991   0.00000  Uiso   1.00
C96    C     0.01856   1.00102   0.76140   0.00000  Uiso   1.00
C97    C     0.02771   1.00114   0.69042   0.00000  Uiso   1.00
H98    H     0.92470   0.00015   0.32884   0.00000  Uiso   1.00
H99    H     0.94075  -0.00051   0.20478   0.00000  Uiso   1.00
H100   H     0.12895   1.00270   0.23173   0.00000  Uiso   1.00
H101   H     0.11303   1.00210   0.35584   0.00000  Uiso   1.00
H102   H     0.07662   1.07247   0.44748   0.00000  Uiso   1.00
H103   H     0.06063   1.07236   0.57146   0.00000  Uiso   1.00
H104   H     0.92052  -0.07035   0.55132   0.00000  Uiso   1.00
H105   H     0.93659  -0.07038   0.42736   0.00000  Uiso   1.00
H106   H     0.88415   0.00131   0.64282   0.00000  Uiso   1.00
H107   H     0.86820   0.00063   0.76697   0.00000  Uiso   1.00
H108   H     0.05647   1.00097   0.79394   0.00000  Uiso   1.00
H109   H     0.07250   1.00051   0.66984   0.00000  Uiso   1.00
loop_
_geom_bond_atom_site_label_1
_geom_bond_atom_site_label_2
_geom_bond_distance
_geom_bond_site_symmetry_2
_ccdc_geom_bond_type
Ce0    O9      2.260   .     S
Ce0    O10     2.278   .     S
Ce0    O11     2.284   1_556 S
Ce0    O12     2.304   1_556 S
Ce0    O14     2.276   1_556 S
Ce0    O15     2.260   1_466 S
Ce0    O19     2.304   1_565 S
Ce1    O15     2.260   .     S
Ce1    O16     2.278   .     S
Ce1    O8      2.276   1_554 S
Ce1    O9      2.260   1_644 S
Ce1    O13     2.304   1_545 S
Ce1    O17     2.285   1_554 S
Ce1    O18     2.304   1_554 S
C2     O8      1.227   1_565 D
C2     O9      1.401   1_655 S
C2     C95     1.475   1_665 S
C3     O10     1.278   .     A
C3     C53     1.476   .     S
C3     O11     1.281   1_556 A
C4     O13     1.297   .     A
C4     O12     1.297   1_655 A
C4     C23     1.483   1_554 S
C5     C83     1.475   .     S
C5     O14     1.227   1_545 D
C5     O15     1.401   1_455 S
C6     O16     1.278   .     A
C6     O17     1.281   1_554 A
C6     C65     1.476   1_544 S
C7     O19     1.297   .     A
C7     O18     1.297   1_455 A
C7     C35     1.483   1_455 S
O8     Ce1     2.276   1_556 S
O8     C2      1.227   1_545 D
O9     Ce1     2.260   1_466 S
O9     C2      1.401   1_455 S
O11    Ce0     2.284   1_554 S
O11    C3      1.281   1_554 A
O12    Ce0     2.304   1_554 S
O12    C4      1.297   1_455 A
O13    Ce1     2.304   1_565 S
O14    Ce0     2.276   1_554 S
O14    C5      1.227   1_565 D
O15    Ce0     2.260   1_644 S
O15    C5      1.401   1_655 S
O17    Ce1     2.285   1_556 S
O17    C6      1.281   1_556 A
O18    Ce1     2.304   1_556 S
O18    C7      1.297   1_655 A
O19    Ce0     2.304   1_545 S
C20    C26     1.486   .     S
C20    C21     1.405   1_655 A
C20    C25     1.405   1_556 A
C21    C22     1.398   .     A
C21    H38     1.083   .     S
C21    C20     1.405   1_455 A
C22    H39     1.083   .     S
C22    C23     1.406   1_455 A
C23    C22     1.406   1_655 A
C23    C24     1.406   1_556 A
C23    C4      1.483   1_556 S
C24    C25     1.398   .     A
C24    H40     1.083   .     S
C24    C23     1.406   1_554 A
C25    H41     1.083   .     S
C25    C20     1.405   1_554 A
C26    C31     1.406   .     A
C26    C27     1.406   1_556 A
C27    C28     1.397   .     A
C27    H42     1.083   .     S
C27    C26     1.406   1_554 A
C28    H43     1.083   .     S
C28    C29     1.406   1_554 A
C29    C30     1.406   .     A
C29    C32     1.485   .     S
C29    C28     1.406   1_556 A
C30    C31     1.397   .     A
C30    H44     1.083   1_655 S
C31    H45     1.083   1_655 S
C32    C33     1.405   1_655 A
C32    C37     1.405   1_556 A
C33    C34     1.398   .     A
C33    H46     1.083   .     S
C33    C32     1.405   1_455 A
C34    H47     1.083   .     S
C34    C35     1.406   1_455 A
C35    C34     1.406   1_655 A
C35    C36     1.406   1_556 A
C35    C7      1.483   1_655 S
C36    C37     1.398   .     A
C36    H48     1.083   .     S
C36    C35     1.406   1_554 A
C37    H49     1.083   .     S
C37    C32     1.405   1_554 A
H44    C30     1.083   1_455 S
H45    C31     1.083   1_455 S
C50    C51     1.406   .     A
C50    C56     1.485   .     S
C50    C55     1.406   1_556 A
C51    C52     1.398   .     A
C51    H68     1.083   .     S
C52    C53     1.404   .     A
C52    H69     1.083   1_565 S
C53    C54     1.404   1_556 A
C54    C55     1.398   .     A
C54    H70     1.083   .     S
C54    C53     1.404   1_554 A
C55    H71     1.083   .     S
C55    C50     1.406   1_554 A
C56    C61     1.406   .     A
C56    C57     1.406   1_556 A
C57    C58     1.397   .     A
C57    H72     1.083   .     S
C57    C56     1.406   1_554 A
C58    H73     1.083   .     S
C58    C59     1.406   1_554 A
C59    C60     1.406   .     A
C59    C62     1.485   .     S
C59    C58     1.406   1_556 A
C60    C61     1.397   .     A
C60    H74     1.083   .     S
C61    H75     1.083   .     S
C62    C63     1.406   .     A
C62    C67     1.406   1_556 A
C63    C64     1.398   .     A
C63    H76     1.083   .     S
C64    C65     1.404   .     A
C64    H77     1.083   1_565 S
C65    C66     1.404   1_556 A
C65    C6      1.476   1_566 S
C66    C67     1.398   .     A
C66    H78     1.083   .     S
C66    C65     1.404   1_554 A
C67    H79     1.083   .     S
C67    C62     1.406   1_554 A
H69    C52     1.083   1_545 S
H77    C64     1.083   1_545 S
C80    C86     1.485   .     S
C80    C81     1.406   1_455 A
C80    C85     1.406   1_545 A
C81    C82     1.398   .     A
C81    H98     1.083   .     S
C81    C80     1.406   1_655 A
C82    H99     1.083   .     S
C82    C83     1.403   1_655 A
C83    C82     1.403   1_455 A
C83    C84     1.404   1_545 A
C84    C85     1.398   .     A
C84    H100    1.083   .     S
C84    C83     1.404   1_565 A
C85    H101    1.083   .     S
C85    C80     1.406   1_565 A
C86    C87     1.406   1_545 A
C86    C91     1.406   1_455 A
C87    C88     1.397   .     A
C87    H102    1.083   .     S
C87    C86     1.406   1_565 A
C88    H103    1.083   .     S
C88    C89     1.405   1_565 A
C89    C92     1.485   .     S
C89    C88     1.405   1_545 A
C89    C90     1.405   1_455 A
C90    C91     1.397   .     A
C90    H104    1.083   .     S
C90    C89     1.405   1_655 A
C91    H105    1.083   .     S
C91    C86     1.406   1_655 A
C92    C93     1.406   1_455 A
C92    C97     1.406   1_545 A
C93    C94     1.398   .     A
C93    H106    1.083   .     S
C93    C92     1.406   1_655 A
C94    H107    1.083   .     S
C94    C95     1.404   1_655 A
C95    C94     1.404   1_455 A
C95    C96     1.403   1_545 A
C95    C2      1.475   1_445 S
C96    C97     1.398   .     A
C96    H108    1.083   .     S
C96    C95     1.403   1_565 A
C97    H109    1.083   .     S
C97    C92     1.406   1_565 A
