data_pcu+N155+E59
_audit_creation_date              2023-11-17
_audit_creation_method            'Materials Studio'
_symmetry_space_group_name_H-M    'P1'
_symmetry_Int_Tables_number       1
_symmetry_cell_setting            triclinic
loop_
_symmetry_equiv_pos_as_xyz
  x,y,z
_cell_length_a                    18.9850
_cell_length_b                    19.2718
_cell_length_c                    22.0399
_cell_angle_alpha                 89.0574
_cell_angle_beta                  106.5631
_cell_angle_gamma                 102.1613
loop_
_atom_site_label
_atom_site_type_symbol
_atom_site_fract_x
_atom_site_fract_y
_atom_site_fract_z
_atom_site_U_iso_or_equiv
_atom_site_adp_type
_atom_site_occupancy
C0     C     0.13693   0.00014   0.18340   0.00000  Uiso   1.00
Ho1    Ho    0.04418  -0.01355   0.07038   0.00000  Uiso   1.00
C2     C     0.86595   0.96898   0.81931   0.00000  Uiso   1.00
Ho3    Ho    0.94909   0.97537   0.93490   0.00000  Uiso   1.00
O4     O     0.14144   0.04700   0.14208   0.00000  Uiso   1.00
O5     O     1.08304  -0.05403   0.16405   0.00000  Uiso   1.00
O6     O     0.14007   0.07312   0.06765   0.00000  Uiso   1.00
O7     O     0.03358   1.05679   0.99577   0.00000  Uiso   1.00
C8     C     0.10950   0.08767   1.01346   0.00000  Uiso   1.00
C9     C     0.87883   0.91361   0.01697   0.00000  Uiso   1.00
O10    O     0.10538   0.92622   0.02594   0.00000  Uiso   1.00
O11    O     1.03802   0.92631   0.92079   0.00000  Uiso   1.00
O12    O     0.86114   0.91685   0.85573   0.00000  Uiso   1.00
O13    O    -0.08419   1.02436   0.84475   0.00000  Uiso   1.00
O14    O     0.85334   0.95289   0.97629   0.00000  Uiso   1.00
O15    O     0.94910  -0.09297   0.01518   0.00000  Uiso   1.00
O16    O     0.89367   0.04528   0.98030   0.00000  Uiso   1.00
O17    O    -0.03162   0.05325   0.08487   0.00000  Uiso   1.00
C18    C     0.91463   0.07080   1.03953   0.00000  Uiso   1.00
C19    C     0.09294   0.91123  -0.03408   0.00000  Uiso   1.00
C20    C     0.91437   0.31773   1.00808   0.00000  Uiso   1.00
C21    C     0.92772   0.42709   0.95128   0.00000  Uiso   1.00
H22    H     0.20893   0.63184   0.02459   0.00000  Uiso   1.00
C23    C     0.01371   0.42063   0.05492   0.00000  Uiso   1.00
C24    C    -0.02405   0.35081   0.05861   0.00000  Uiso   1.00
N25    N     0.11367   0.79640   0.94303   0.00000  Uiso   1.00
N26    N     0.90977   0.19386   0.05167   0.00000  Uiso   1.00
O27    O     0.21520   0.76576   0.01512   0.00000  Uiso   1.00
O28    O     0.81071   0.22264   0.97513   0.00000  Uiso   1.00
H29    H     0.20131   0.88617  -0.01660   0.00000  Uiso   1.00
H30    H     0.15256   0.89044   0.90126   0.00000  Uiso   1.00
H31    H     0.14192   0.51054   0.03214   0.00000  Uiso   1.00
H32    H     0.99635   0.69601   0.95502   0.00000  Uiso   1.00
H33    H     0.92989   0.57465   0.96153   0.00000  Uiso   1.00
H34    H     1.06359   0.77749   0.90739   0.00000  Uiso   1.00
H35    H     0.84306   0.33342   0.91495   0.00000  Uiso   1.00
H36    H     0.81316   0.10861   1.02445   0.00000  Uiso   1.00
H37    H     0.86852   0.11241   0.10561   0.00000  Uiso   1.00
H38    H     0.90860   0.45562   0.90910   0.00000  Uiso   1.00
H39    H    -0.00524   0.32376   0.10164   0.00000  Uiso   1.00
H40    H     0.06077   0.44476   0.09462   0.00000  Uiso   1.00
H41    H    -0.03411   0.20931   0.07876   0.00000  Uiso   1.00
C42    C     0.14801   0.62013   0.01077   0.00000  Uiso   1.00
C43    C     0.14951   0.74716  -0.01613   0.00000  Uiso   1.00
C44    C     0.14514   0.87285   0.94776   0.00000  Uiso   1.00
C45    C     0.03074   0.53318  -0.00295   0.00000  Uiso   1.00
C46    C     0.10815   0.67352  -0.01206   0.00000  Uiso   1.00
C47    C     0.10972   0.55075   0.01523   0.00000  Uiso   1.00
C48    C     1.02906   0.65602   0.97066   0.00000  Uiso   1.00
C49    C     0.99079   0.58650   0.97472   0.00000  Uiso   1.00
C50    C     0.89034   0.35709   0.95466   0.00000  Uiso   1.00
C51    C     0.87435   0.24298   1.01029   0.00000  Uiso   1.00
C52    C     0.87167   0.12049   0.05635   0.00000  Uiso   1.00
C53    C     0.99016   0.45938   1.00116   0.00000  Uiso   1.00
C54    C     0.64616   0.92908   1.00924   0.00000  Uiso   1.00
C55    C     0.51263   0.92997   0.97195   0.00000  Uiso   1.00
H56    H     0.42090   0.19854  -0.03306   0.00000  Uiso   1.00
C57    C     0.60107   0.03290   0.03024   0.00000  Uiso   1.00
C58    C     0.66010  -0.00168   0.03560   0.00000  Uiso   1.00
N59    N     0.21050   0.10824  -0.03468   0.00000  Uiso   1.00
N60    N     0.77399   0.90778   1.06193   0.00000  Uiso   1.00
O61    O     0.30121   0.20551   0.00377   0.00000  Uiso   1.00
O62    O     0.70155   0.84851   0.97111   0.00000  Uiso   1.00
H63    H     0.16864   0.19048  -0.00120   0.00000  Uiso   1.00
H64    H     0.10822   0.14124   0.92756   0.00000  Uiso   1.00
H65    H     0.52326   0.13770  -0.02780   0.00000  Uiso   1.00
H66    H     0.28691   1.00395   1.00912   0.00000  Uiso   1.00
H67    H     0.38891   0.94329   1.01449   0.00000  Uiso   1.00
H68    H     0.19662   1.05725   0.94391   0.00000  Uiso   1.00
H69    H     0.55924   0.84238   0.95587   0.00000  Uiso   1.00
H70    H     0.82387   0.82056   1.05437   0.00000  Uiso   1.00
H71    H     0.88057   0.88993   0.11192   0.00000  Uiso   1.00
H72    H     0.45597   0.90290   0.94653   0.00000  Uiso   1.00
H73    H     0.71665   0.02664   0.05948   0.00000  Uiso   1.00
H74    H     0.61357   0.08597   0.05152   0.00000  Uiso   1.00
H75    H     0.77863  -0.05782   0.09967   0.00000  Uiso   1.00
C76    C     0.41326   0.14271  -0.02300   0.00000  Uiso   1.00
C77    C     0.28457   0.14316  -0.01455   0.00000  Uiso   1.00
C78    C     0.14850   0.13695  -0.02558   0.00000  Uiso   1.00
C79    C     0.46391   0.03562  -0.00658   0.00000  Uiso   1.00
C80    C     0.34532   0.10559  -0.01379   0.00000  Uiso   1.00
C81    C     0.47186   0.10801  -0.01971   0.00000  Uiso   1.00
C82    C     0.33748   1.03331   0.99950   0.00000  Uiso   1.00
C83    C     0.39606   0.99866   1.00290   0.00000  Uiso   1.00
C84    C     0.57176   0.89552   0.97700   0.00000  Uiso   1.00
C85    C     0.70864   0.89255   1.01285   0.00000  Uiso   1.00
C86    C     0.84011   0.87909   1.06380   0.00000  Uiso   1.00
C87    C     0.52667   0.99908   0.99845   0.00000  Uiso   1.00
C88    C     0.88112   0.96169   0.60056   0.00000  Uiso   1.00
C89    C     0.88963   0.97341   0.49261   0.00000  Uiso   1.00
H90    H     0.17395   0.11584   0.45460   0.00000  Uiso   1.00
C91    C     0.00337  -0.00779   0.58055   0.00000  Uiso   1.00
C92    C    -0.03989  -0.02180   0.62291   0.00000  Uiso   1.00
N93    N     0.14826   0.99592   0.29530   0.00000  Uiso   1.00
N94    N     0.86181  -0.02215   0.70843   0.00000  Uiso   1.00
O95    O     0.18849   0.10922   0.34127   0.00000  Uiso   1.00
O96    O     0.77180   0.90863   0.62686   0.00000  Uiso   1.00
H97    H     0.22798   0.06180   0.25569   0.00000  Uiso   1.00
H98    H     0.22593   0.96822   0.25352   0.00000  Uiso   1.00
H99    H     0.09832   0.09100   0.52856   0.00000  Uiso   1.00
H100   H     1.01562   0.95216   0.32370   0.00000  Uiso   1.00
H101   H     0.94251   0.92508   0.39874   0.00000  Uiso   1.00
H102   H     1.12002   0.94384   0.29818   0.00000  Uiso   1.00
H103   H     0.78568   0.94660   0.51632   0.00000  Uiso   1.00
H104   H     0.77704   0.91298   0.74251   0.00000  Uiso   1.00
H105   H     0.78307   0.00748   0.74797   0.00000  Uiso   1.00
H106   H     0.86103   0.97244   0.44244   0.00000  Uiso   1.00
H107   H    -0.01127  -0.02121   0.67302   0.00000  Uiso   1.00
H108   H     0.06407   0.00341   0.59920   0.00000  Uiso   1.00
H109   H    -0.08983   0.01847   0.72017   0.00000  Uiso   1.00
C110   C     0.12334   0.07427   0.44179   0.00000  Uiso   1.00
C111   C     0.14861   0.05021   0.33948   0.00000  Uiso   1.00
C112   C     0.19034   1.00810   0.24856   0.00000  Uiso   1.00
C113   C     0.01461   0.00570   0.46980   0.00000  Uiso   1.00
C114   C     0.10179   0.03512   0.38376   0.00000  Uiso   1.00
C115   C     0.08044   0.05955   0.48444   0.00000  Uiso   1.00
C116   C     1.03543   0.98195   0.36873   0.00000  Uiso   1.00
C117   C     0.99262   0.96716   0.41139   0.00000  Uiso   1.00
C118   C     0.84642   0.95891   0.53493   0.00000  Uiso   1.00
C119   C     0.83459   0.94676   0.64498   0.00000  Uiso   1.00
C120   C     0.81645  -0.03422   0.75277   0.00000  Uiso   1.00
C121   C     0.96865   0.99025   0.51488   0.00000  Uiso   1.00
loop_
_geom_bond_atom_site_label_1
_geom_bond_atom_site_label_2
_geom_bond_distance
_geom_bond_site_symmetry_2
_ccdc_geom_bond_type
C0     O4      1.279   .     A
C0     O5      1.278   1_455 A
C0     C112    1.492   1_545 S
Ho1    O4      2.181   .     S
Ho1    O6      2.210   .     S
Ho1    O17     2.211   .     S
Ho1    O5      2.176   1_455 S
Ho1    O7      2.106   1_544 S
Ho1    O10     2.216   1_545 S
Ho1    O15     2.174   1_455 S
C2     O12     1.280   .     A
C2     O13     1.281   1_655 A
C2     C120    1.494   1_565 S
Ho3    O11     2.196   .     S
Ho3    O12     2.171   .     S
Ho3    O14     2.219   .     S
Ho3    O7      2.149   1_655 S
Ho3    O13     2.171   1_655 S
Ho3    O15     2.188   1_566 S
Ho3    O16     2.273   1_565 S
O5     C0      1.278   1_655 A
O5     Ho1     2.176   1_655 S
O6     C8      1.227   1_554 D
O7     Ho1     2.106   1_566 S
O7     Ho3     2.149   1_455 S
O7     C8      1.382   1_565 S
C8     O6      1.227   1_556 D
C8     O7      1.382   1_545 S
C8     C78     1.494   1_556 S
C9     O14     1.223   1_554 D
C9     O15     1.378   1_565 S
C9     C86     1.501   1_554 S
O10    C19     1.302   .     A
O10    Ho1     2.216   1_565 S
O11    C19     1.299   1_656 A
O13    C2      1.281   1_455 A
O13    Ho3     2.171   1_455 S
O14    C9      1.223   1_556 D
O15    Ho1     2.174   1_655 S
O15    Ho3     2.188   1_544 S
O15    C9      1.378   1_545 S
O16    C18     1.322   .     A
O16    Ho3     2.273   1_545 S
O17    C18     1.307   1_454 A
C18    O17     1.307   1_656 A
C18    C52     1.494   1_556 S
C19    O11     1.299   1_454 A
C19    C44     1.495   1_554 S
C20    C50     1.407   .     A
C20    C51     1.487   .     S
C20    C24     1.407   1_656 A
C21    H38     1.083   .     S
C21    C50     1.397   .     A
C21    C53     1.403   .     A
H22    C42     1.083   .     S
C23    C24     1.398   .     A
C23    H40     1.083   .     S
C23    C53     1.404   1_454 A
C24    H39     1.081   .     S
C24    C20     1.407   1_454 A
N25    C44     1.462   .     S
N25    H34     1.045   1_455 S
N25    C43     1.438   1_556 S
N26    C52     1.463   .     S
N26    H41     1.044   1_655 S
N26    C51     1.439   1_554 S
O27    C43     1.220   .     D
O28    C51     1.221   .     D
H29    C44     1.111   1_554 S
H30    C44     1.112   .     S
H31    C47     1.083   .     S
H32    C48     1.081   .     S
H33    C49     1.083   .     S
H34    N25     1.045   1_655 S
H35    C50     1.083   .     S
H36    C52     1.111   1_556 S
H37    C52     1.111   .     S
H41    N26     1.044   1_455 S
C42    C46     1.407   .     A
C42    C47     1.397   .     A
C43    C46     1.485   .     S
C43    N25     1.438   1_554 S
C44    H29     1.111   1_556 S
C44    C19     1.495   1_556 S
C45    C47     1.404   .     A
C45    C49     1.404   1_454 A
C45    C53     1.483   1_454 S
C46    C48     1.407   1_454 A
C48    C49     1.398   .     A
C48    C46     1.407   1_656 A
C49    C45     1.404   1_656 A
C51    N26     1.439   1_556 S
C52    H36     1.111   1_554 S
C52    C18     1.494   1_554 S
C53    C23     1.404   1_656 A
C53    C45     1.483   1_656 S
C54    C84     1.406   .     A
C54    C85     1.485   .     S
C54    C58     1.406   1_566 A
C55    H72     1.083   .     S
C55    C84     1.398   .     A
C55    C87     1.405   .     A
H56    C76     1.083   .     S
C57    C58     1.397   .     A
C57    H74     1.083   .     S
C57    C87     1.405   1_544 A
C58    H73     1.081   .     S
C58    C54     1.406   1_544 A
N59    C77     1.372   .     S
N59    C78     1.464   .     S
N59    H68     1.045   1_544 S
N60    C85     1.374   .     S
N60    C86     1.465   .     S
N60    H75     1.045   1_566 S
O61    C77     1.221   .     D
O62    C85     1.221   .     D
H63    C78     1.111   .     S
H64    C78     1.110   1_556 S
H65    C81     1.083   .     S
H66    C82     1.082   .     S
H67    C83     1.083   .     S
H68    N59     1.045   1_566 S
H69    C84     1.083   .     S
H70    C86     1.111   .     S
H71    C86     1.111   1_554 S
H75    N60     1.045   1_544 S
C76    C80     1.404   .     A
C76    C81     1.398   .     A
C77    C80     1.482   .     S
C78    H64     1.110   1_554 S
C78    C8      1.494   1_554 S
C79    C81     1.406   .     A
C79    C83     1.404   1_544 A
C79    C87     1.484   1_544 S
C80    C82     1.404   1_544 A
C82    C83     1.397   .     A
C82    C80     1.404   1_566 A
C83    C79     1.404   1_566 A
C86    H71     1.111   1_556 S
C86    C9      1.501   1_556 S
C87    C57     1.405   1_566 A
C87    C79     1.484   1_566 S
C88    C118    1.405   .     A
C88    C119    1.483   .     S
C88    C92     1.406   1_665 A
C89    H106    1.083   .     S
C89    C118    1.397   .     A
C89    C121    1.406   .     A
H90    C110    1.083   .     S
C91    C92     1.398   .     A
C91    H108    1.082   .     S
C91    C121    1.406   1_445 A
C92    H107    1.082   .     S
C92    C88     1.406   1_445 A
N93    C112    1.462   .     S
N93    H102    1.044   1_455 S
N93    C111    1.439   1_565 S
N94    C120    1.462   .     S
N94    H109    1.045   1_655 S
N94    C119    1.438   1_545 S
O95    C111    1.221   .     D
O96    C119    1.221   .     D
H97    C112    1.112   1_545 S
H98    C112    1.110   .     S
H99    C115    1.083   .     S
H100   C116    1.082   .     S
H101   C117    1.082   .     S
H102   N93     1.044   1_655 S
H103   C118    1.083   .     S
H104   C120    1.112   1_565 S
H105   C120    1.110   .     S
H109   N94     1.045   1_455 S
C110   C114    1.406   .     A
C110   C115    1.399   .     A
C111   C114    1.484   .     S
C111   N93     1.439   1_545 S
C112   H97     1.112   1_565 S
C112   C0      1.492   1_565 S
C113   C115    1.406   .     A
C113   C117    1.406   1_445 A
C113   C121    1.487   1_445 S
C114   C116    1.406   1_445 A
C116   C117    1.398   .     A
C116   C114    1.406   1_665 A
C117   C113    1.406   1_665 A
C119   N94     1.438   1_565 S
C120   H104    1.112   1_545 S
C120   C2      1.494   1_545 S
C121   C91     1.406   1_665 A
C121   C113    1.487   1_665 S
