data_pcu+N144+E161
_audit_creation_date              2023-11-17
_audit_creation_method            'Materials Studio'
_symmetry_space_group_name_H-M    'P1'
_symmetry_Int_Tables_number       1
_symmetry_cell_setting            triclinic
loop_
_symmetry_equiv_pos_as_xyz
  x,y,z
_cell_length_a                    26.0527
_cell_length_b                    24.0377
_cell_length_c                    24.0787
_cell_angle_alpha                 87.6480
_cell_angle_beta                  74.4073
_cell_angle_gamma                 80.1580
loop_
_atom_site_label
_atom_site_type_symbol
_atom_site_fract_x
_atom_site_fract_y
_atom_site_fract_z
_atom_site_U_iso_or_equiv
_atom_site_adp_type
_atom_site_occupancy
C0     C     0.15710  -0.02984   0.01235   0.00000  Uiso   1.00
Er1    Er    0.94706   1.00309   1.02313   0.00000  Uiso   1.00
Er2    Er    0.03927   0.98848  -0.00203   0.00000  Uiso   1.00
C3     C    -0.00835   1.00269   0.12734   0.00000  Uiso   1.00
O4     O     0.03648   0.07915  -0.00837   0.00000  Uiso   1.00
C5     C    -0.00547   0.87871   0.02027   0.00000  Uiso   1.00
C6     C     0.99835   0.98894   0.89209   0.00000  Uiso   1.00
C7     C     0.85351   0.01271   0.99815   0.00000  Uiso   1.00
O8     O     0.13527  -0.04276   0.06126   0.00000  Uiso   1.00
O9     O     0.12979  -0.02617   0.96936   0.00000  Uiso   1.00
O10    O     0.04160   0.98513   0.90755   0.00000  Uiso   1.00
O11    O     0.95287   0.99595   0.93057   0.00000  Uiso   1.00
O12    O     0.03877   0.89813   0.00504   0.00000  Uiso   1.00
O13    O     0.94966   0.91260   1.03211   0.00000  Uiso   1.00
C14    C     0.99159   0.11286   0.00080   0.00000  Uiso   1.00
O15    O     0.94742   0.09328   0.01329   0.00000  Uiso   1.00
O16    O     0.03608   0.99348   0.08872   0.00000  Uiso   1.00
O17    O     0.94776   1.00893   0.11278   0.00000  Uiso   1.00
O18    O     0.89895   0.00308   0.96073   0.00000  Uiso   1.00
O19    O     0.85881   0.01787   0.04806   0.00000  Uiso   1.00
H20    H     0.90411   0.19611   1.03035   0.00000  Uiso   1.00
C21    C    -0.00502   0.81694   0.02314   0.00000  Uiso   1.00
C22    C     0.04392   0.77905   1.00662   0.00000  Uiso   1.00
C23    C     0.04441   0.72058   1.00623   0.00000  Uiso   1.00
C24    C    -0.00485   0.69952   1.02272   0.00000  Uiso   1.00
C25    C     0.94589   0.73724   0.04045   0.00000  Uiso   1.00
C26    C     0.94624   0.79553   0.04043   0.00000  Uiso   1.00
C27    C     0.09736   0.68089   0.98734   0.00000  Uiso   1.00
C28    C     0.89302   0.71548   0.05889   0.00000  Uiso   1.00
C29    C    -0.00174   0.60661   0.06647   0.00000  Uiso   1.00
C30    C    -0.00253   0.54841   0.06442   0.00000  Uiso   1.00
C31    C    -0.00687   0.52493   0.01352   0.00000  Uiso   1.00
C32    C     0.98975   0.55974   0.96570   0.00000  Uiso   1.00
C33    C     0.99086   0.61763   0.96976   0.00000  Uiso   1.00
C34    C     0.00085   0.51326   0.11184   0.00000  Uiso   1.00
C35    C     0.00005   0.45550   0.10871   0.00000  Uiso   1.00
C36    C    -0.00425   0.43165   0.05813   0.00000  Uiso   1.00
C37    C    -0.00785   0.46652   0.01042   0.00000  Uiso   1.00
C38    C     0.98761   0.44315   0.95956   0.00000  Uiso   1.00
C39    C     0.98413   0.47832   0.91218   0.00000  Uiso   1.00
C40    C     0.98526   0.53598   0.91519   0.00000  Uiso   1.00
C41    C    -0.00501   0.37368   0.05389   0.00000  Uiso   1.00
C42    C     0.98677   0.38500   0.95745   0.00000  Uiso   1.00
C43    C    -0.00953   0.29196   0.00075   0.00000  Uiso   1.00
C44    C     0.09246   0.27652  -0.03756   0.00000  Uiso   1.00
C45    C     0.03946   0.19628  -0.01962   0.00000  Uiso   1.00
C46    C     0.88842   0.31003   1.03864   0.00000  Uiso   1.00
C47    C     0.94190   0.21229   0.01633   0.00000  Uiso   1.00
C48    C     0.94131   0.27071   1.01786   0.00000  Uiso   1.00
C49    C     0.03968   0.25454  -0.01873   0.00000  Uiso   1.00
C50    C    -0.00914   0.17466  -0.00165   0.00000  Uiso   1.00
H51    H     0.88244   0.34073   1.00435   0.00000  Uiso   1.00
N52    N    -0.00502   0.63984   1.01957   0.00000  Uiso   1.00
N53    N    -0.00946   0.35163   0.00413   0.00000  Uiso   1.00
H54    H     0.88848   0.33319   0.07753   0.00000  Uiso   1.00
H55    H     0.08181   0.79505   0.99315   0.00000  Uiso   1.00
H56    H     0.90823   0.82431   0.05348   0.00000  Uiso   1.00
H57    H     0.13229   0.70391   0.97557   0.00000  Uiso   1.00
H58    H     0.10240   0.65134   0.02291   0.00000  Uiso   1.00
H59    H     0.09792   0.65633   0.94907   0.00000  Uiso   1.00
H60    H     0.89230   0.68805   0.09726   0.00000  Uiso   1.00
H61    H     0.85803   0.75043   0.07043   0.00000  Uiso   1.00
H62    H     0.88819   0.69066   1.02328   0.00000  Uiso   1.00
O63    O     0.98754   0.65222   0.92360   0.00000  Uiso   1.00
O64    O     0.00238   0.63032   0.11569   0.00000  Uiso   1.00
H65    H     0.00413   0.53024   0.15152   0.00000  Uiso   1.00
H66    H     0.98257   0.56184   0.87783   0.00000  Uiso   1.00
H67    H     0.00296   0.42963   0.14600   0.00000  Uiso   1.00
H68    H     0.12711   0.24213   0.94593   0.00000  Uiso   1.00
H69    H     0.09114   0.30774  -0.07257   0.00000  Uiso   1.00
H70    H     0.07744   0.16763  -0.03369   0.00000  Uiso   1.00
H71    H     0.98051   0.46146   0.87260   0.00000  Uiso   1.00
H72    H     0.85360   0.28679   1.05018   0.00000  Uiso   1.00
O73    O     0.98245   0.36149   0.90826   0.00000  Uiso   1.00
O74    O    -0.00075   0.33887   0.09960   0.00000  Uiso   1.00
H75    H     0.09968   0.29708  -0.00058   0.00000  Uiso   1.00
H76    H     0.75720   0.06678   0.06042   0.00000  Uiso   1.00
C77    C     0.21322  -0.01887   0.99880   0.00000  Uiso   1.00
C78    C     0.24969  -0.03355   0.94494   0.00000  Uiso   1.00
C79    C     0.30417  -0.02745   0.93441   0.00000  Uiso   1.00
C80    C     0.32191  -0.00457   0.97786   0.00000  Uiso   1.00
C81    C     0.28436   0.01308   0.03098   0.00000  Uiso   1.00
C82    C     0.23082   0.00455   0.04133   0.00000  Uiso   1.00
C83    C     0.34327   0.95350   0.87758   0.00000  Uiso   1.00
C84    C     0.30034   0.03972   0.07801   0.00000  Uiso   1.00
C85    C     0.40333   0.03664   0.93863   0.00000  Uiso   1.00
C86    C     0.45793   0.03871   0.93429   0.00000  Uiso   1.00
C87    C     0.48640  -0.00156   0.96409   0.00000  Uiso   1.00
C88    C     0.46056  -0.04407  -0.00381   0.00000  Uiso   1.00
C89    C     0.40643  -0.04522  -0.00178   0.00000  Uiso   1.00
C90    C     0.48453   0.08031   0.90161   0.00000  Uiso   1.00
C91    C     0.53838   0.08256   0.89944   0.00000  Uiso   1.00
C92    C     0.56668   0.04346   0.93025   0.00000  Uiso   1.00
C93    C     0.54062   0.00105   0.96243   0.00000  Uiso   1.00
C94    C     0.56854  -0.03851  -0.00662   0.00000  Uiso   1.00
C95    C     0.54243   0.91908   0.02497   0.00000  Uiso   1.00
C96    C     0.48906  -0.08377   0.02628   0.00000  Uiso   1.00
C97    C     0.62016   0.04607   0.93056   0.00000  Uiso   1.00
C98    C     0.62170  -0.03395  -0.00723   0.00000  Uiso   1.00
C99    C     0.69874   0.01461   0.96707   0.00000  Uiso   1.00
C100   C     0.74401   0.95397   0.87678   0.00000  Uiso   1.00
C101   C     0.79659  -0.01176   0.93730   0.00000  Uiso   1.00
C102   C     0.65334   0.07570   0.05595   0.00000  Uiso   1.00
C103   C     0.75399   0.04481   0.02338   0.00000  Uiso   1.00
C104   C     0.70307   0.04478   0.01431   0.00000  Uiso   1.00
C105   C     0.74602  -0.01310   0.92780   0.00000  Uiso   1.00
C106   C     0.80080   0.01608   0.98548   0.00000  Uiso   1.00
H107   H     0.62690   0.04528   0.07798   0.00000  Uiso   1.00
N108   N     0.37868  -0.00468   0.97060   0.00000  Uiso   1.00
N109   N     0.64607   0.00835   0.96242   0.00000  Uiso   1.00
H110   H     0.63068   0.10701   0.03231   0.00000  Uiso   1.00
H111   H     0.23613   0.94799   0.91216   0.00000  Uiso   1.00
H112   H     0.20261   0.01597   0.08301   0.00000  Uiso   1.00
H113   H     0.32372   0.93333   0.84986   0.00000  Uiso   1.00
H114   H     0.35861   0.99049   0.85426   0.00000  Uiso   1.00
H115   H     0.37768   0.92250   0.88468   0.00000  Uiso   1.00
H116   H     0.34210   0.04908   0.06405   0.00000  Uiso   1.00
H117   H     0.27281   0.08029   0.09162   0.00000  Uiso   1.00
H118   H     0.29713   0.01107   0.11572   0.00000  Uiso   1.00
O119   O     0.38062   0.91379   0.02974   0.00000  Uiso   1.00
O120   O     0.37417   0.07721   0.91232   0.00000  Uiso   1.00
H121   H     0.46376   0.11144   0.87783   0.00000  Uiso   1.00
H122   H     0.47007   0.88320   0.05147   0.00000  Uiso   1.00
H123   H     0.55751   0.11542   0.87410   0.00000  Uiso   1.00
H124   H     0.76098   0.90893   0.88126   0.00000  Uiso   1.00
H125   H     0.70239  -0.04383   0.87246   0.00000  Uiso   1.00
H126   H     0.83259  -0.03455   0.90819   0.00000  Uiso   1.00
H127   H     0.56301   0.88823   0.04919   0.00000  Uiso   1.00
H128   H     0.66378   0.09865   0.08942   0.00000  Uiso   1.00
O129   O     0.64902  -0.07145   0.02375   0.00000  Uiso   1.00
O130   O     0.64648   0.08673   0.89900   0.00000  Uiso   1.00
H131   H     0.76853  -0.02913   0.83660   0.00000  Uiso   1.00
H132   H     0.08481  -0.00827   0.79923   0.00000  Uiso   1.00
C133   C    -0.00869   1.00521   0.18876   0.00000  Uiso   1.00
C134   C     0.94372   1.00272   0.23257   0.00000  Uiso   1.00
C135   C     0.94384   1.00240   0.29086   0.00000  Uiso   1.00
C136   C     0.99225   1.00503   0.30571   0.00000  Uiso   1.00
C137   C     0.04002   1.00878   0.26181   0.00000  Uiso   1.00
C138   C     0.03904   1.00880   0.20389   0.00000  Uiso   1.00
C139   C     0.89247   0.99884   0.33703   0.00000  Uiso   1.00
C140   C     0.09260   0.01287   0.27496   0.00000  Uiso   1.00
C141   C     0.00456   0.95110   0.38972   0.00000  Uiso   1.00
C142   C     0.00651   0.94747   0.44752   0.00000  Uiso   1.00
C143   C     0.99623   0.99751   0.47995   0.00000  Uiso   1.00
C144   C     0.98415   0.05015   0.45427   0.00000  Uiso   1.00
C145   C     0.98269   0.05164   0.39630   0.00000  Uiso   1.00
C146   C     0.01863   0.89516   0.47350   0.00000  Uiso   1.00
C147   C     0.02039   0.89254   0.53106   0.00000  Uiso   1.00
C148   C     0.01014   0.94220   0.56384   0.00000  Uiso   1.00
C149   C     0.99803   0.99486   0.53819   0.00000  Uiso   1.00
C150   C     0.98770   0.04490   0.57064   0.00000  Uiso   1.00
C151   C     0.97564   0.09717   0.54466   0.00000  Uiso   1.00
C152   C     0.97386   0.09976   0.48713   0.00000  Uiso   1.00
C153   C     0.01147   0.94066   0.62185   0.00000  Uiso   1.00
C154   C     0.98949   0.04122   0.62850   0.00000  Uiso   1.00
C155   C     1.00101   0.98702   0.71269   0.00000  Uiso   1.00
C156   C     0.90029   0.98030   0.74182   0.00000  Uiso   1.00
C157   C     0.95279   0.98325   0.81389   0.00000  Uiso   1.00
C158   C     0.10090  -0.00702   0.68325   0.00000  Uiso   1.00
C159   C     0.04811   0.98903   0.78716   0.00000  Uiso   1.00
C160   C     0.04900   0.98939   0.72858   0.00000  Uiso   1.00
C161   C     0.95271   0.98341   0.75582   0.00000  Uiso   1.00
C162   C    -0.00003   0.98653   0.83023   0.00000  Uiso   1.00
H163   H     0.09568   0.03155   0.65697   0.00000  Uiso   1.00
N164   N     0.99299   1.00259   0.36533   0.00000  Uiso   1.00
N165   N     1.00107   0.98970   0.65287   0.00000  Uiso   1.00
H166   H     0.11213   0.95528   0.65469   0.00000  Uiso   1.00
H167   H     0.90660   0.99996   0.22141   0.00000  Uiso   1.00
H168   H     0.07598   1.01127   0.17050   0.00000  Uiso   1.00
H169   H     0.85811   0.99697   0.31842   0.00000  Uiso   1.00
H170   H     0.89812   0.96023   0.36318   0.00000  Uiso   1.00
H171   H     0.88174   1.03660   0.36551   0.00000  Uiso   1.00
H172   H     0.09011   1.00926   0.32167   0.00000  Uiso   1.00
H173   H     0.12469  -0.02143   0.25215   0.00000  Uiso   1.00
H174   H     0.10466   0.05418   0.25976   0.00000  Uiso   1.00
O175   O     0.97134   0.10255   0.37042   0.00000  Uiso   1.00
O176   O     0.01468   0.90278   0.35736   0.00000  Uiso   1.00
H177   H     0.02673   0.85607   0.44946   0.00000  Uiso   1.00
H178   H     0.96438   0.14076   0.46854   0.00000  Uiso   1.00
H179   H     0.02971   0.85150   0.54973   0.00000  Uiso   1.00
H180   H     0.86913   1.01644   0.76245   0.00000  Uiso   1.00
H181   H     0.90391   0.98170   0.69479   0.00000  Uiso   1.00
H182   H     0.91548   0.98093   0.84652   0.00000  Uiso   1.00
H183   H     0.96754   0.13624   0.56868   0.00000  Uiso   1.00
H184   H     0.13472  -0.00506   0.70260   0.00000  Uiso   1.00
O185   O     0.97923   0.08951   0.66091   0.00000  Uiso   1.00
O186   O     0.02293   0.88973   0.64762   0.00000  Uiso   1.00
H187   H     0.88612   0.94036   0.75912   0.00000  Uiso   1.00
loop_
_geom_bond_atom_site_label_1
_geom_bond_atom_site_label_2
_geom_bond_distance
_geom_bond_site_symmetry_2
_ccdc_geom_bond_type
C0     O8      1.215   .     D
C0     O9      1.397   1_554 S
C0     C77     1.477   1_554 S
Er1    O11     2.205   .     S
Er1    O13     2.168   .     S
Er1    O15     2.173   1_566 S
Er1    O17     2.174   1_556 S
Er1    O18     2.200   1_565 S
Er1    O19     2.184   1_566 S
Er2    O12     2.174   .     S
Er2    O16     2.172   .     S
Er2    O4      2.169   1_565 S
Er2    O9      2.241   1_564 S
Er2    O10     2.166   1_554 S
C3     O16     1.267   .     A
C3     C133    1.480   .     S
C3     O17     1.267   1_455 A
O4     Er2     2.169   1_545 S
O4     C14     1.275   1_455 A
C5     O12     1.274   .     A
C5     C21     1.482   .     S
C5     O13     1.275   1_454 A
C6     O11     1.283   .     A
C6     O10     1.267   1_655 A
C6     C162    1.482   1_655 S
C7     O18     1.272   .     A
C7     C106    1.473   .     S
C7     O19     1.259   1_556 A
O9     C0      1.397   1_556 S
O9     Er2     2.241   1_546 S
O10    Er2     2.166   1_556 S
O10    C6      1.267   1_455 A
O13    C5      1.275   1_656 A
C14    O15     1.274   .     A
C14    O4      1.275   1_655 A
C14    C50     1.481   1_655 S
O15    Er1     2.173   1_544 S
O17    Er1     2.174   1_554 S
O17    C3      1.267   1_655 A
O18    Er1     2.200   1_545 S
O19    Er1     2.184   1_544 S
O19    C7      1.259   1_554 A
H20    C47     1.084   1_556 S
C21    C22     1.405   1_554 A
C21    C26     1.404   1_455 A
C22    C23     1.404   .     A
C22    H55     1.084   .     S
C22    C21     1.405   1_556 A
C23    C24     1.411   .     A
C23    C27     1.506   .     S
C24    N52     1.441   .     S
C24    C25     1.411   1_456 A
C25    C26     1.403   .     A
C25    C28     1.506   .     S
C25    C24     1.411   1_654 A
C26    H56     1.084   .     S
C26    C21     1.404   1_655 A
C27    H57     1.111   .     S
C27    H59     1.110   .     S
C27    H58     1.111   1_556 S
C28    H60     1.111   .     S
C28    H61     1.111   .     S
C28    H62     1.110   1_554 S
C29    C30     1.406   .     A
C29    O64     1.373   .     S
C29    N52     1.369   1_554 A
C30    C31     1.409   .     A
C30    C34     1.405   .     A
C31    C37     1.414   .     A
C31    C32     1.409   1_454 A
C32    C33     1.405   .     A
C32    C40     1.405   .     A
C32    C31     1.409   1_656 A
C33    O63     1.373   .     S
C33    N52     1.370   1_655 A
C34    C35     1.398   .     A
C34    H65     1.084   .     S
C35    C36     1.406   .     A
C35    H67     1.083   .     S
C36    C37     1.408   .     A
C36    C41     1.405   .     A
C37    C38     1.409   1_454 A
C38    C39     1.405   .     A
C38    C42     1.405   .     A
C38    C37     1.409   1_656 A
C39    C40     1.397   .     A
C39    H71     1.084   .     S
C40    H66     1.083   .     S
C41    N53     1.370   .     A
C41    O74     1.372   .     S
C42    O73     1.372   .     S
C42    N53     1.369   1_656 A
C43    C49     1.411   .     A
C43    N53     1.440   .     S
C43    C48     1.412   1_454 A
C44    C49     1.506   .     S
C44    H69     1.109   .     S
C44    H75     1.109   .     S
C44    H68     1.111   1_554 S
C45    C49     1.403   .     A
C45    C50     1.404   .     A
C45    H70     1.084   .     S
C46    C48     1.505   .     S
C46    H51     1.109   .     S
C46    H72     1.112   .     S
C46    H54     1.109   1_556 S
C47    H20     1.084   1_554 S
C47    C48     1.404   1_554 A
C47    C50     1.405   1_655 A
C48    C43     1.412   1_656 A
C48    C47     1.404   1_556 A
C50    C47     1.405   1_455 A
C50    C14     1.481   1_455 S
N52    C29     1.369   1_556 A
N52    C33     1.370   1_455 A
N53    C42     1.369   1_454 A
H54    C46     1.109   1_554 S
H58    C27     1.111   1_554 S
H62    C28     1.110   1_556 S
H68    C44     1.111   1_556 S
H76    C103    1.084   .     S
C77    C78     1.403   .     A
C77    C82     1.401   1_556 A
C77    C0      1.477   1_556 S
C78    C79     1.405   .     A
C78    H111    1.085   1_545 S
C79    C80     1.416   .     A
C79    C83     1.504   1_545 S
C80    N108    1.441   .     S
C80    C81     1.415   1_556 A
C81    C82     1.399   .     A
C81    C84     1.507   .     S
C81    C80     1.415   1_554 A
C82    H112    1.086   .     S
C82    C77     1.401   1_554 A
C83    H113    1.111   .     S
C83    H114    1.107   .     S
C83    H115    1.110   .     S
C83    C79     1.504   1_565 S
C84    H116    1.108   .     S
C84    H117    1.111   .     S
C84    H118    1.110   .     S
C85    C86     1.407   .     A
C85    N108    1.371   .     A
C85    O120    1.373   .     S
C86    C87     1.409   .     A
C86    C90     1.407   .     A
C87    C93     1.414   .     A
C87    C88     1.409   1_556 A
C88    C89     1.403   .     A
C88    C96     1.406   .     A
C88    C87     1.409   1_554 A
C89    N108    1.371   1_554 A
C89    O119    1.375   1_545 S
C90    C91     1.400   .     A
C90    H121    1.083   .     S
C91    C92     1.406   .     A
C91    H123    1.085   .     S
C92    C93     1.410   .     A
C92    C97     1.408   .     A
C93    C94     1.409   1_556 A
C94    C98     1.404   .     A
C94    C93     1.409   1_554 A
C94    C95     1.406   1_545 A
C95    H127    1.084   .     S
C95    C94     1.406   1_565 A
C95    C96     1.396   1_565 A
C96    C95     1.396   1_545 A
C96    H122    1.085   1_545 S
C97    N109    1.370   .     A
C97    O130    1.375   .     S
C98    O129    1.374   .     S
C98    N109    1.372   1_554 A
C99    C105    1.414   .     A
C99    N109    1.440   .     S
C99    C104    1.413   1_556 A
C100   H124    1.110   .     S
C100   C105    1.506   1_565 S
C100   H125    1.109   1_565 S
C100   H131    1.111   1_565 S
C101   C105    1.402   .     A
C101   C106    1.401   .     A
C101   H126    1.083   .     S
C102   C104    1.507   .     S
C102   H107    1.111   .     S
C102   H110    1.110   .     S
C102   H128    1.111   .     S
C103   C104    1.401   .     A
C103   C106    1.401   1_554 A
C104   C99     1.413   1_554 A
C105   C100    1.506   1_545 S
C106   C103    1.401   1_556 A
N108   C89     1.371   1_556 A
N109   C98     1.372   1_556 A
H111   C78     1.085   1_565 S
O119   C89     1.375   1_565 S
H122   C96     1.085   1_565 S
H125   C100    1.109   1_545 S
H131   C100    1.111   1_545 S
H132   C159    1.084   1_545 S
C133   C138    1.403   .     A
C133   C134    1.404   1_455 A
C134   C135    1.404   .     A
C134   H167    1.084   .     S
C134   C133    1.404   1_655 A
C135   C136    1.412   .     A
C135   C139    1.505   .     S
C136   N164    1.440   .     S
C136   C137    1.414   1_655 A
C137   C138    1.402   .     A
C137   C136    1.414   1_455 A
C137   C140    1.506   1_565 S
C138   H168    1.084   .     S
C139   H169    1.111   .     S
C139   H170    1.111   .     S
C139   H171    1.111   .     S
C140   H173    1.111   .     S
C140   H174    1.111   .     S
C140   C137    1.506   1_545 S
C140   H172    1.110   1_545 S
C141   C142    1.405   .     A
C141   O176    1.373   .     S
C141   N164    1.370   1_455 A
C142   C146    1.406   .     A
C142   C143    1.408   1_455 A
C143   C149    1.414   .     A
C143   C142    1.408   1_655 A
C143   C144    1.409   1_565 A
C144   C145    1.405   .     A
C144   C152    1.405   .     A
C144   C143    1.409   1_545 A
C145   O175    1.373   .     S
C145   N164    1.369   1_545 A
C146   C147    1.398   .     A
C146   H177    1.083   .     S
C147   C148    1.405   .     A
C147   H179    1.084   .     S
C148   C153    1.405   .     A
C148   C149    1.410   1_455 A
C149   C148    1.410   1_655 A
C149   C150    1.408   1_565 A
C150   C151    1.405   .     A
C150   C154    1.405   .     A
C150   C149    1.408   1_545 A
C151   C152    1.397   .     A
C151   H183    1.083   .     S
C152   H178    1.083   .     S
C153   O186    1.373   .     S
C153   N165    1.369   1_455 A
C154   O185    1.373   .     S
C154   N165    1.370   1_545 A
C155   C161    1.413   .     A
C155   N165    1.439   .     S
C155   C160    1.413   1_655 A
C156   C161    1.506   .     S
C156   H180    1.113   .     S
C156   H181    1.111   .     S
C156   H187    1.112   .     S
C157   C161    1.399   .     A
C157   H182    1.081   .     S
C157   C162    1.402   1_655 A
C158   H163    1.111   .     S
C158   H184    1.110   .     S
C158   C160    1.505   1_545 S
C158   H166    1.110   1_545 S
C159   C160    1.404   .     A
C159   C162    1.405   .     A
C159   H132    1.084   1_565 S
C160   C155    1.413   1_455 A
C160   C158    1.505   1_565 S
C162   C157    1.402   1_455 A
C162   C6      1.482   1_455 S
N164   C141    1.370   1_655 A
N164   C145    1.369   1_565 A
N165   C153    1.369   1_655 A
N165   C154    1.370   1_565 A
H166   C158    1.110   1_565 S
H172   C140    1.110   1_565 S
