data_pcu+N123+E14
_audit_creation_date              2023-11-17
_audit_creation_method            'Materials Studio'
_symmetry_space_group_name_H-M    'P1'
_symmetry_Int_Tables_number       1
_symmetry_cell_setting            triclinic
loop_
_symmetry_equiv_pos_as_xyz
  x,y,z
_cell_length_a                    14.3675
_cell_length_b                    11.5875
_cell_length_c                    10.0761
_cell_angle_alpha                 108.3306
_cell_angle_beta                  102.6351
_cell_angle_gamma                 90.6640
loop_
_atom_site_label
_atom_site_type_symbol
_atom_site_fract_x
_atom_site_fract_y
_atom_site_fract_z
_atom_site_U_iso_or_equiv
_atom_site_adp_type
_atom_site_occupancy
Ce0    Ce    0.11099   1.00151   0.99633   0.00000  Uiso   1.00
Ce1    Ce    0.88919  -0.00137   0.00378   0.00000  Uiso   1.00
C2     C     0.93827   0.99592   0.75197   0.00000  Uiso   1.00
C3     C     0.29888   1.00040   0.99836   0.00000  Uiso   1.00
C4     C     0.99942   0.74990  -0.00110   0.00000  Uiso   1.00
C5     C     0.06192   0.00441   0.24824   0.00000  Uiso   1.00
C6     C     0.70130  -0.00031   0.00173   0.00000  Uiso   1.00
C7     C     0.00080   0.25031   1.00138   0.00000  Uiso   1.00
O8     O     0.88033   0.05952   0.80189   0.00000  Uiso   1.00
O9     O    -0.02719   0.92446   0.83335   0.00000  Uiso   1.00
O10    O     0.23345   0.94848   0.88523   0.00000  Uiso   1.00
O11    O     0.26824   1.05279   0.11057   0.00000  Uiso   1.00
O12    O     0.07980   0.80394  -0.00139   0.00000  Uiso   1.00
O13    O     0.91966   0.80211   0.00265   0.00000  Uiso   1.00
O14    O     0.11995   0.94090   0.19845   0.00000  Uiso   1.00
O15    O     1.02734   0.07576   0.16674   0.00000  Uiso   1.00
O16    O     0.76672   0.05166   0.11488   0.00000  Uiso   1.00
O17    O     0.73195  -0.05269   0.88953   0.00000  Uiso   1.00
O18    O     0.92040   0.19624   1.00153   0.00000  Uiso   1.00
O19    O     0.08056   0.19810   0.99766   0.00000  Uiso   1.00
C20    C     0.08335   0.56046   0.99502   0.00000  Uiso   1.00
C21    C    -0.00031   0.62195  -0.00091   0.00000  Uiso   1.00
C22    C     0.91647   0.56009   0.00430   0.00000  Uiso   1.00
C23    C     0.91689   0.43978   0.00534   0.00000  Uiso   1.00
C24    C     0.00055   0.37829   0.00127   0.00000  Uiso   1.00
C25    C     0.08376   0.44014   0.99604   0.00000  Uiso   1.00
H26    H     0.14878   0.60514   0.99098   0.00000  Uiso   1.00
H27    H     0.85075   0.60453   0.00774   0.00000  Uiso   1.00
H28    H     0.85145   0.39509   0.00934   0.00000  Uiso   1.00
H29    H     0.14947   0.39568   0.99252   0.00000  Uiso   1.00
C30    C     0.43166   0.94437   0.87198   0.00000  Uiso   1.00
C31    C     0.40179   0.00008  -0.00073   0.00000  Uiso   1.00
C32    C     0.47110   0.05562   0.12735   0.00000  Uiso   1.00
C33    C     0.56852   0.05564   0.12812   0.00000  Uiso   1.00
C34    C     0.59839  -0.00006   0.00083   0.00000  Uiso   1.00
C35    C     0.52908   0.94430   0.87275   0.00000  Uiso   1.00
H36    H     0.37971   0.90081   0.77170   0.00000  Uiso   1.00
H37    H     0.45005   0.09909   0.22705   0.00000  Uiso   1.00
H38    H     0.62046   0.09928   0.22839   0.00000  Uiso   1.00
H39    H     0.55013   0.90081   0.77306   0.00000  Uiso   1.00
C40    C     0.96286   0.08034   0.42727   0.00000  Uiso   1.00
C41    C     0.03098   0.00268   0.37764   0.00000  Uiso   1.00
C42    C     0.06794   0.92238   0.45129   0.00000  Uiso   1.00
C43    C     0.03731   0.92002   0.57293   0.00000  Uiso   1.00
C44    C    -0.03078  -0.00230   0.62259   0.00000  Uiso   1.00
C45    C     0.93234   0.07809   0.54904   0.00000  Uiso   1.00
H46    H     0.93318   0.14276   0.37190   0.00000  Uiso   1.00
H47    H     0.12015   0.86110   0.41446   0.00000  Uiso   1.00
H48    H     0.06685   0.85740   0.62810   0.00000  Uiso   1.00
H49    H     0.88015   0.13940   0.58590   0.00000  Uiso   1.00
loop_
_geom_bond_atom_site_label_1
_geom_bond_atom_site_label_2
_geom_bond_distance
_geom_bond_site_symmetry_2
_ccdc_geom_bond_type
Ce0    O9      2.246   .     S
Ce0    O10     2.276   .     S
Ce0    O11     2.277   1_556 S
Ce0    O12     2.336   1_556 S
Ce0    O14     2.333   1_556 S
Ce0    O15     2.265   1_466 S
Ce0    O19     2.321   1_565 S
Ce1    O15     2.246   .     S
Ce1    O16     2.276   .     S
Ce1    O8      2.333   1_554 S
Ce1    O9      2.265   1_644 S
Ce1    O13     2.321   1_545 S
Ce1    O17     2.277   1_554 S
Ce1    O18     2.336   1_554 S
C2     O8      1.206   1_565 D
C2     O9      1.365   1_655 S
C2     C44     1.472   1_665 S
C3     O10     1.277   .     A
C3     O11     1.278   1_556 A
C3     C31     1.477   1_566 S
C4     O13     1.304   .     A
C4     O12     1.308   1_655 A
C4     C21     1.483   1_655 S
C5     C41     1.472   .     S
C5     O14     1.206   1_545 D
C5     O15     1.365   1_455 S
C6     O16     1.278   .     A
C6     C34     1.477   .     S
C6     O17     1.278   1_554 A
C7     O19     1.304   .     A
C7     O18     1.308   1_455 A
C7     C24     1.483   1_556 S
O8     Ce1     2.333   1_556 S
O8     C2      1.206   1_545 D
O9     Ce1     2.265   1_466 S
O9     C2      1.365   1_455 S
O11    Ce0     2.277   1_554 S
O11    C3      1.278   1_554 A
O12    Ce0     2.336   1_554 S
O12    C4      1.308   1_455 A
O13    Ce1     2.321   1_565 S
O14    Ce0     2.333   1_554 S
O14    C5      1.206   1_565 D
O15    Ce0     2.265   1_644 S
O15    C5      1.365   1_655 S
O17    Ce1     2.277   1_556 S
O17    C6      1.278   1_556 A
O18    Ce1     2.336   1_556 S
O18    C7      1.308   1_655 A
O19    Ce0     2.321   1_545 S
C20    C25     1.398   .     A
C20    H26     1.083   .     S
C20    C21     1.406   1_556 A
C21    C20     1.406   1_554 A
C21    C22     1.406   1_455 A
C21    C4      1.483   1_455 S
C22    C23     1.397   .     A
C22    H27     1.083   .     S
C22    C21     1.406   1_655 A
C23    H28     1.083   .     S
C23    C24     1.406   1_655 A
C24    C23     1.406   1_455 A
C24    C25     1.406   1_554 A
C24    C7      1.483   1_554 S
C25    H29     1.083   .     S
C25    C24     1.406   1_556 A
C30    C35     1.398   .     A
C30    H36     1.083   .     S
C30    C31     1.404   1_566 A
C31    C32     1.404   .     A
C31    C30     1.404   1_544 A
C31    C3      1.477   1_544 S
C32    C33     1.398   .     A
C32    H37     1.083   .     S
C33    C34     1.404   .     A
C33    H38     1.083   .     S
C34    C35     1.404   1_544 A
C35    H39     1.083   .     S
C35    C34     1.404   1_566 A
C40    C45     1.398   .     A
C40    H46     1.083   .     S
C40    C41     1.403   1_655 A
C41    C40     1.403   1_455 A
C41    C42     1.404   1_545 A
C42    C43     1.398   .     A
C42    H47     1.083   .     S
C42    C41     1.404   1_565 A
C43    H48     1.083   .     S
C43    C44     1.403   1_565 A
C44    C43     1.403   1_545 A
C44    C45     1.404   1_455 A
C44    C2      1.472   1_445 S
C45    H49     1.083   .     S
C45    C44     1.404   1_655 A
