data_pcu+N155+E229
_audit_creation_date              2023-11-17
_audit_creation_method            'Materials Studio'
_symmetry_space_group_name_H-M    'P1'
_symmetry_Int_Tables_number       1
_symmetry_cell_setting            triclinic
loop_
_symmetry_equiv_pos_as_xyz
  x,y,z
_cell_length_a                    17.6116
_cell_length_b                    22.7255
_cell_length_c                    25.3516
_cell_angle_alpha                 84.8139
_cell_angle_beta                  114.8255
_cell_angle_gamma                 106.6603
loop_
_atom_site_label
_atom_site_type_symbol
_atom_site_fract_x
_atom_site_fract_y
_atom_site_fract_z
_atom_site_U_iso_or_equiv
_atom_site_adp_type
_atom_site_occupancy
C0     C    -0.10128  -0.00603   0.11850   0.00000  Uiso   1.00
Ho1    Ho   -0.05600  -0.02298   0.03885   0.00000  Uiso   1.00
C2     C     1.12206   1.01942   0.87984   0.00000  Uiso   1.00
Ho3    Ho    1.04488   0.99811   0.94992   0.00000  Uiso   1.00
O4     O    -0.03621  -0.02716   0.12878   0.00000  Uiso   1.00
O5     O     0.85603   0.00453   0.06456   0.00000  Uiso   1.00
O6     O     0.06377   0.05359   0.08496   0.00000  Uiso   1.00
O7     O     0.07463   0.98147   1.04425   0.00000  Uiso   1.00
C8     C     0.11678   0.03531   1.07735   0.00000  Uiso   1.00
C9     C     0.87170   0.94078  -0.08977   0.00000  Uiso   1.00
O10    O     0.03053   0.92471   0.03093   0.00000  Uiso   1.00
O11    O     1.02526   0.89795   0.94924   0.00000  Uiso   1.00
O12    O     1.04146   1.01572   0.86340   0.00000  Uiso   1.00
O13    O     0.16078   1.01015   0.93391   0.00000  Uiso   1.00
O14    O     0.92139   0.93052   0.89354   0.00000  Uiso   1.00
O15    O     0.91285  -0.00861  -0.05372   0.00000  Uiso   1.00
O16    O     1.04886   0.09401   0.95788   0.00000  Uiso   1.00
O17    O    -0.01525   0.07928   0.02227   0.00000  Uiso   1.00
C18    C     1.02053   0.11401   0.99016   0.00000  Uiso   1.00
C19    C     0.00702   0.88111  -0.00710   0.00000  Uiso   1.00
C20    C     0.87859   0.71323   0.96129   0.00000  Uiso   1.00
C21    C     0.82251   0.70923   0.98858   0.00000  Uiso   1.00
C22    C     0.82905   0.76028   1.01865   0.00000  Uiso   1.00
C23    C     0.89064   0.81584   0.02112   0.00000  Uiso   1.00
C24    C     0.94691   0.82082   0.99367   0.00000  Uiso   1.00
C25    C     0.94021   0.76939   0.96348   0.00000  Uiso   1.00
C26    C     0.87135   0.65789   0.92942   0.00000  Uiso   1.00
H27    H     0.77376   0.66660   0.98653   0.00000  Uiso   1.00
H28    H     0.78658   0.75668   1.04035   0.00000  Uiso   1.00
H29    H     0.89201   0.85551   0.04265   0.00000  Uiso   1.00
H30    H    -0.01774   0.77322   0.94136   0.00000  Uiso   1.00
H31    H     0.80435   0.64309   0.89445   0.00000  Uiso   1.00
H32    H     0.91853   0.66929   0.90902   0.00000  Uiso   1.00
C33    C    -0.00468   0.26718   0.01562   0.00000  Uiso   1.00
C34    C    -0.02485   0.20475   0.00108   0.00000  Uiso   1.00
C35    C    -0.07111   0.29330   0.02019   0.00000  Uiso   1.00
C36    C    -0.09108   0.39568   0.00310   0.00000  Uiso   1.00
C37    C     0.89530   0.44515   0.95797   0.00000  Uiso   1.00
C38    C     0.07953   0.30502   0.02793   0.00000  Uiso   1.00
C39    C     0.14197   0.28134   1.02392   0.00000  Uiso   1.00
C40    C     0.03771   0.18090  -0.00323   0.00000  Uiso   1.00
H41    H     0.09690   0.35288   0.04082   0.00000  Uiso   1.00
H42    H     0.20769   0.31014   1.03533   0.00000  Uiso   1.00
H43    H     0.17035   0.20234   1.00476   0.00000  Uiso   1.00
H44    H     0.91140   0.17456  -0.00620   0.00000  Uiso   1.00
H45    H    -0.04578   0.31062   0.06590   0.00000  Uiso   1.00
C46    C     0.88030   0.55344   0.94050   0.00000  Uiso   1.00
C47    C     0.89629   0.50322  -0.01546   0.00000  Uiso   1.00
H48    H     0.85391   0.38280   0.01670   0.00000  Uiso   1.00
H49    H    -0.05161   0.45614   0.94275   0.00000  Uiso   1.00
H50    H     0.83185   0.42782   0.92035   0.00000  Uiso   1.00
H51    H    -0.02860   0.41426   0.04148   0.00000  Uiso   1.00
H52    H    -0.13342   0.25731   0.01075   0.00000  Uiso   1.00
H53    H     0.92924   0.56352   0.92166   0.00000  Uiso   1.00
H54    H     0.81374   0.53732   0.90536   0.00000  Uiso   1.00
N55    N     0.88819   0.60850   0.97018   0.00000  Uiso   1.00
N56    N    -0.08732   0.34162  -0.02214   0.00000  Uiso   1.00
C57    C     0.12072   0.21999   1.00692   0.00000  Uiso   1.00
C58    C     0.35229   0.07510   0.10034   0.00000  Uiso   1.00
C59    C     0.37733   0.13903   0.11034   0.00000  Uiso   1.00
C60    C     0.31780   0.16852   0.11069   0.00000  Uiso   1.00
C61    C     0.23402   0.13435   0.10304   0.00000  Uiso   1.00
C62    C     0.20760   0.07056   0.09202   0.00000  Uiso   1.00
C63    C     0.26663   0.04130   0.09023   0.00000  Uiso   1.00
C64    C     0.41598   0.04307   0.10006   0.00000  Uiso   1.00
H65    H     0.44259   0.16599   0.11738   0.00000  Uiso   1.00
H66    H     0.33718   0.21792   0.11747   0.00000  Uiso   1.00
H67    H     0.18952   0.15831   1.10399   0.00000  Uiso   1.00
H68    H     0.24611   0.99224   0.08111   0.00000  Uiso   1.00
H69    H     0.47146   0.04954   0.14364   0.00000  Uiso   1.00
H70    H     0.38402  -0.00710   0.09117   0.00000  Uiso   1.00
C71    C     0.64314   0.87949   0.90208   0.00000  Uiso   1.00
C72    C     0.72232   0.92101   0.90647   0.00000  Uiso   1.00
C73    C     0.57653   0.90140   0.91128   0.00000  Uiso   1.00
C74    C     0.55430   0.96894   0.96857   0.00000  Uiso   1.00
C75    C     0.60108   0.02987   0.00332   0.00000  Uiso   1.00
C76    C     0.62665   0.81714   0.88848   0.00000  Uiso   1.00
C77    C     0.68613   0.79720   0.87682   0.00000  Uiso   1.00
C78    C     0.78378   0.90041   0.89721   0.00000  Uiso   1.00
H79    H     0.56681   0.78419   0.88559   0.00000  Uiso   1.00
H80    H     0.67344   0.74920   0.86635   0.00000  Uiso   1.00
H81    H     0.81136   0.82186  -0.12595   0.00000  Uiso   1.00
H82    H     0.73730  -0.03117   0.91865   0.00000  Uiso   1.00
H83    H     0.52762   0.86188   0.91826   0.00000  Uiso   1.00
C84    C     0.48810   0.02786   0.04221   0.00000  Uiso   1.00
C85    C     0.53852   0.06239   1.00726   0.00000  Uiso   1.00
H86    H     0.50386  -0.02322   0.92600   0.00000  Uiso   1.00
H87    H     0.64690   1.02222   0.04750   0.00000  Uiso   1.00
H88    H     0.63950   0.06093  -0.01850   0.00000  Uiso   1.00
H89    H     0.52185   0.93516   0.99235   0.00000  Uiso   1.00
H90    H     0.54306   0.92450   0.87110   0.00000  Uiso   1.00
H91    H     0.43649  -0.01239   0.01576   0.00000  Uiso   1.00
H92    H     0.53349   0.01210   0.08300   0.00000  Uiso   1.00
N93    N     0.44802   0.06905   0.05577   0.00000  Uiso   1.00
N94    N     0.61815   0.94495   0.96106   0.00000  Uiso   1.00
C95    C     0.76416   0.83864  -0.11922   0.00000  Uiso   1.00
C96    C    -0.10135   0.99903   0.26753   0.00000  Uiso   1.00
C97    C     0.83935   1.03386   0.25657   0.00000  Uiso   1.00
C98    C     0.79902   1.05444   0.20084   0.00000  Uiso   1.00
C99    C     0.81848   1.04176   0.15578   0.00000  Uiso   1.00
C100   C     0.87540   1.00572   0.16537   0.00000  Uiso   1.00
C101   C    -0.08486   0.98444   0.22139   0.00000  Uiso   1.00
C102   C    -0.05113   0.97882   0.32756   0.00000  Uiso   1.00
H103   H     0.82388   1.04528   0.29070   0.00000  Uiso   1.00
H104   H     0.75581   1.08292   0.19317   0.00000  Uiso   1.00
H105   H     0.78994   1.06079   0.11361   0.00000  Uiso   1.00
H106   H    -0.03964  -0.04252   0.22952   0.00000  Uiso   1.00
H107   H    -0.07359   0.92790   0.32838   0.00000  Uiso   1.00
H108   H     0.01884   0.99240   0.33569   0.00000  Uiso   1.00
C109   C     1.16263   0.06416   0.74428   0.00000  Uiso   1.00
C110   C     1.12239   0.05149   0.78310   0.00000  Uiso   1.00
C111   C     1.11631   0.08467   0.68392   0.00000  Uiso   1.00
C112   C     1.04726   0.05388   0.58237   0.00000  Uiso   1.00
C113   C     0.04859   1.01388   0.53785   0.00000  Uiso   1.00
C114   C     0.24703   0.05821   0.76259   0.00000  Uiso   1.00
C115   C     0.29085   0.04061   0.81911   0.00000  Uiso   1.00
C116   C     0.16559   0.03299   0.83972   0.00000  Uiso   1.00
H117   H     0.27932   0.06807   0.73338   0.00000  Uiso   1.00
H118   H     0.35606   0.03633   0.83309   0.00000  Uiso   1.00
H119   H     0.28631   0.01528   0.90144   0.00000  Uiso   1.00
H120   H     1.05740   1.05617   0.76921   0.00000  Uiso   1.00
H121   H     1.15668   0.13004   0.67771   0.00000  Uiso   1.00
C122   C    -0.00348   0.99278   0.43061   0.00000  Uiso   1.00
C123   C     0.99040   1.02795   0.47625   0.00000  Uiso   1.00
H124   H     0.97925   1.04433   0.57828   0.00000  Uiso   1.00
H125   H     0.11701   0.02357   0.54256   0.00000  Uiso   1.00
H126   H     0.02470   0.96442   0.54598   0.00000  Uiso   1.00
H127   H     1.07098   0.10316   0.57358   0.00000  Uiso   1.00
H128   H     1.05259   0.09030   0.67826   0.00000  Uiso   1.00
H129   H     0.06520   1.00758   0.43518   0.00000  Uiso   1.00
H130   H    -0.02219   0.94249   0.43764   0.00000  Uiso   1.00
N131   N     0.93768   1.00660   0.37289   0.00000  Uiso   1.00
N132   N     1.10305   0.03949   0.64102   0.00000  Uiso   1.00
C133   C     0.25067   0.02837   0.85767   0.00000  Uiso   1.00
loop_
_geom_bond_atom_site_label_1
_geom_bond_atom_site_label_2
_geom_bond_distance
_geom_bond_site_symmetry_2
_ccdc_geom_bond_type
C0     O4      1.286   .     A
C0     O5      1.294   1_455 A
C0     C100    1.477   1_445 S
Ho1    O4      2.154   .     S
Ho1    O6      2.244   .     S
Ho1    O17     2.283   .     S
Ho1    O5      2.166   1_455 S
Ho1    O7      2.220   1_544 S
Ho1    O10     2.262   1_545 S
Ho1    O15     2.191   1_455 S
C2     O12     1.279   .     A
C2     O13     1.278   1_655 A
C2     C116    1.476   1_665 S
Ho3    O11     2.203   .     S
Ho3    O12     2.172   .     S
Ho3    O14     2.237   .     S
Ho3    O7      2.244   1_655 S
Ho3    O13     2.182   1_655 S
Ho3    O15     2.249   1_566 S
Ho3    O16     2.185   1_565 S
O5     C0      1.294   1_655 A
O5     Ho1     2.166   1_655 S
O6     C8      1.212   1_554 D
O7     Ho1     2.220   1_566 S
O7     Ho3     2.244   1_455 S
O7     C8      1.376   1_565 S
C8     O6      1.212   1_556 D
C8     O7      1.376   1_545 S
C8     C62     1.469   1_556 S
C9     O14     1.202   1_554 D
C9     O15     1.356   1_565 S
C9     C78     1.469   1_554 S
O10    C19     1.298   .     A
O10    Ho1     2.262   1_565 S
O11    C19     1.275   1_656 A
O13    C2      1.278   1_455 A
O13    Ho3     2.182   1_455 S
O14    C9      1.202   1_556 D
O15    Ho1     2.191   1_655 S
O15    Ho3     2.249   1_544 S
O15    C9      1.356   1_545 S
O16    C18     1.291   .     A
O16    Ho3     2.185   1_545 S
O17    C18     1.309   1_454 A
C18    O17     1.309   1_656 A
C18    C40     1.473   1_656 S
C19    O11     1.275   1_454 A
C19    C24     1.476   1_454 S
C20    C21     1.405   .     A
C20    C25     1.406   .     A
C20    C26     1.502   .     S
C21    C22     1.396   .     A
C21    H27     1.083   .     S
C22    H28     1.082   .     S
C22    C23     1.395   1_556 A
C23    H29     1.085   .     S
C23    C22     1.395   1_554 A
C23    C24     1.407   1_554 A
C24    C25     1.404   .     A
C24    C23     1.407   1_556 A
C24    C19     1.476   1_656 S
C25    H30     1.083   1_655 S
C26    H31     1.113   .     S
C26    H32     1.113   .     S
C26    N55     1.463   .     S
H30    C25     1.083   1_455 S
C33    C34     1.404   .     A
C33    C35     1.503   .     S
C33    C38     1.402   .     A
C34    C40     1.405   .     A
C34    H44     1.083   1_455 S
C35    H45     1.116   .     S
C35    H52     1.109   .     S
C35    N56     1.466   .     S
C36    H51     1.116   .     S
C36    N56     1.466   .     S
C36    C37     1.524   1_454 S
C36    H48     1.115   1_455 S
C37    H50     1.111   .     S
C37    C36     1.524   1_656 S
C37    C47     1.528   1_556 S
C37    H49     1.112   1_655 S
C38    H41     1.083   .     S
C38    C39     1.397   1_554 A
C39    H42     1.082   .     S
C39    C57     1.394   .     A
C39    C38     1.397   1_556 A
C40    C57     1.405   1_554 A
C40    C18     1.473   1_454 S
H43    C57     1.083   .     S
H44    C34     1.083   1_655 S
C46    H53     1.112   .     S
C46    H54     1.113   .     S
C46    N55     1.461   .     S
C46    C47     1.523   1_556 S
C47    C37     1.528   1_554 S
C47    C46     1.523   1_554 S
H48    C36     1.115   1_655 S
H49    C37     1.112   1_455 S
C57    C40     1.405   1_556 A
C58    C59     1.405   .     A
C58    C63     1.406   .     A
C58    C64     1.505   .     S
C59    C60     1.400   .     A
C59    H65     1.082   .     S
C60    C61     1.396   .     A
C60    H66     1.083   .     S
C61    C62     1.405   .     A
C61    H67     1.083   1_554 S
C62    C63     1.402   .     A
C62    C8      1.469   1_554 S
C63    H68     1.083   1_545 S
C64    H69     1.112   .     S
C64    H70     1.113   .     S
C64    N93     1.466   .     S
H67    C61     1.083   1_556 S
H68    C63     1.083   1_565 S
C71    C72     1.408   .     A
C71    C73     1.505   .     S
C71    C76     1.407   .     A
C72    C78     1.403   .     A
C72    H82     1.083   1_565 S
C73    H83     1.112   .     S
C73    H90     1.112   .     S
C73    N94     1.464   .     S
C74    H89     1.111   .     S
C74    N94     1.466   .     S
C74    C75     1.526   1_566 S
C74    H86     1.112   1_565 S
C75    H88     1.110   .     S
C75    C74     1.526   1_544 S
C75    C85     1.531   1_554 S
C75    H87     1.105   1_545 S
C76    C77     1.395   .     A
C76    H79     1.081   .     S
C77    H80     1.083   .     S
C77    C95     1.395   1_556 A
C78    C95     1.404   1_556 A
C78    C9      1.469   1_556 S
H81    C95     1.086   .     S
H82    C72     1.083   1_545 S
C84    H91     1.111   .     S
C84    H92     1.113   .     S
C84    N93     1.461   .     S
C84    C85     1.525   1_554 S
C85    C75     1.531   1_556 S
C85    C84     1.525   1_556 S
H86    C74     1.112   1_545 S
H87    C75     1.105   1_565 S
C95    C77     1.395   1_554 A
C95    C78     1.404   1_554 A
C96    C101    1.405   .     A
C96    C102    1.512   .     S
C96    C97     1.409   1_455 A
C97    C98     1.396   .     A
C97    H103    1.081   .     S
C97    C96     1.409   1_655 A
C98    C99     1.397   .     A
C98    H104    1.082   .     S
C99    C100    1.402   .     A
C99    H105    1.083   .     S
C100   C101    1.406   1_655 A
C100   C0      1.477   1_665 S
C101   C100    1.406   1_455 A
C101   H106    1.082   1_565 S
C102   H107    1.112   .     S
C102   H108    1.112   .     S
C102   N131    1.466   1_455 S
H106   C101    1.082   1_545 S
C109   C110    1.404   .     A
C109   C111    1.505   .     S
C109   C114    1.403   1_655 A
C110   C116    1.405   1_655 A
C110   H120    1.082   1_545 S
C111   H121    1.112   .     S
C111   H128    1.114   .     S
C111   N132    1.464   .     S
C112   H127    1.115   .     S
C112   N132    1.467   .     S
C112   C113    1.523   1_645 S
C112   H124    1.115   1_545 S
C113   H126    1.115   .     S
C113   C112    1.523   1_465 S
C113   C123    1.531   1_455 S
C113   H125    1.116   1_565 S
C114   C115    1.398   .     A
C114   H117    1.083   .     S
C114   C109    1.403   1_455 A
C115   H118    1.082   .     S
C115   C133    1.397   .     A
C116   C133    1.404   .     A
C116   C110    1.405   1_455 A
C116   C2      1.476   1_445 S
H119   C133    1.085   .     S
H120   C110    1.082   1_565 S
C122   H129    1.116   .     S
C122   H130    1.115   .     S
C122   C123    1.520   1_455 S
C122   N131    1.464   1_455 S
C123   C113    1.531   1_655 S
C123   C122    1.520   1_655 S
H124   C112    1.115   1_565 S
H125   C113    1.116   1_545 S
N131   C102    1.466   1_655 S
N131   C122    1.464   1_655 S
