data_pcu+N155+E161
_audit_creation_date              2023-11-17
_audit_creation_method            'Materials Studio'
_symmetry_space_group_name_H-M    'P1'
_symmetry_Int_Tables_number       1
_symmetry_cell_setting            triclinic
loop_
_symmetry_equiv_pos_as_xyz
  x,y,z
_cell_length_a                    23.3498
_cell_length_b                    24.0478
_cell_length_c                    26.4852
_cell_angle_alpha                 87.6386
_cell_angle_beta                  92.4342
_cell_angle_gamma                 91.0384
loop_
_atom_site_label
_atom_site_type_symbol
_atom_site_fract_x
_atom_site_fract_y
_atom_site_fract_z
_atom_site_U_iso_or_equiv
_atom_site_adp_type
_atom_site_occupancy
C0     C    -0.00301  -0.00491   0.15048   0.00000  Uiso   1.00
Ho1    Ho   -0.00446  -0.00301   0.05235   0.00000  Uiso   1.00
C2     C     0.99307   1.00175   0.84661   0.00000  Uiso   1.00
Ho3    Ho    0.99459   1.00009   0.94473   0.00000  Uiso   1.00
O4     O     0.04291  -0.00342   0.12542   0.00000  Uiso   1.00
O5     O     0.95076  -0.00581   0.12276   0.00000  Uiso   1.00
O6     O     0.08393  -0.00207   0.08294   0.00000  Uiso   1.00
O7     O     0.06446   0.99984   1.00087   0.00000  Uiso   1.00
C8     C     0.10525  -0.00059   1.04120   0.00000  Uiso   1.00
C9     C     0.88488   0.99780  -0.04416   0.00000  Uiso   1.00
O10    O    -0.00332   0.90635   0.04329   0.00000  Uiso   1.00
O11    O     0.99399   0.90898   0.95642   0.00000  Uiso   1.00
O12    O     0.94718   1.00034   0.87170   0.00000  Uiso   1.00
O13    O     0.03931   1.00286   0.87429   0.00000  Uiso   1.00
O14    O     0.90624   0.99923   0.91411   0.00000  Uiso   1.00
O15    O     0.92562  -0.00271  -0.00376   0.00000  Uiso   1.00
O16    O     0.99351   0.09074   0.95375   0.00000  Uiso   1.00
O17    O    -0.00396   0.08811   0.04062   0.00000  Uiso   1.00
C18    C     0.99482   0.11488   0.99689   0.00000  Uiso   1.00
C19    C    -0.00476   0.88223   0.00014   0.00000  Uiso   1.00
H20    H     0.03406   0.18113   0.07147   0.00000  Uiso   1.00
C21    C     0.99482   0.82068   0.00063   0.00000  Uiso   1.00
C22    C     0.97220   0.79256   0.95865   0.00000  Uiso   1.00
C23    C     0.97156   0.73427   0.95850   0.00000  Uiso   1.00
C24    C     0.99438   0.70339   0.00091   0.00000  Uiso   1.00
C25    C     0.01730   0.73137   0.04326   0.00000  Uiso   1.00
C26    C     0.01695   0.78975   0.04289   0.00000  Uiso   1.00
C27    C     0.94627   0.70518   0.91327   0.00000  Uiso   1.00
C28    C     0.04250   0.69914   0.08853   0.00000  Uiso   1.00
C29    C     0.03831   0.61771   0.97833   0.00000  Uiso   1.00
C30    C     0.03905   0.55940   0.97688   0.00000  Uiso   1.00
C31    C     0.99463   0.52791  -0.00080   0.00000  Uiso   1.00
C32    C     0.95034   0.55504   0.02244   0.00000  Uiso   1.00
C33    C     0.95127   0.61347   0.02275   0.00000  Uiso   1.00
C34    C     0.08293   0.53190   0.95371   0.00000  Uiso   1.00
C35    C     0.08273   0.47387   0.95267   0.00000  Uiso   1.00
C36    C     0.03869   0.44203   0.97488   0.00000  Uiso   1.00
C37    C     0.99442   0.46916   0.99815   0.00000  Uiso   1.00
C38    C     0.94995   0.43768   0.02041   0.00000  Uiso   1.00
C39    C     0.90608   0.46518   0.04360   0.00000  Uiso   1.00
C40    C     0.90630   0.52318   0.04469   0.00000  Uiso   1.00
C41    C     0.03772   0.38360   0.97452   0.00000  Uiso   1.00
C42    C     0.95064   0.37937   0.01892   0.00000  Uiso   1.00
C43    C     0.99449   0.29374   0.99621   0.00000  Uiso   1.00
C44    C     0.94726   0.29611   0.90724   0.00000  Uiso   1.00
C45    C     0.97352   0.20728   0.95390   0.00000  Uiso   1.00
C46    C     0.04198   0.29209   0.08416   0.00000  Uiso   1.00
C47    C     0.01674   0.20461   0.03867   0.00000  Uiso   1.00
C48    C     0.01706   0.26292   0.03880   0.00000  Uiso   1.00
C49    C     0.97247   0.26559   0.95353   0.00000  Uiso   1.00
C50    C    -0.00495   0.17641   0.99640   0.00000  Uiso   1.00
H51    H     0.00846   0.31684   0.10094   0.00000  Uiso   1.00
N52    N     0.99470   0.64351   0.00070   0.00000  Uiso   1.00
N53    N     0.99425   0.35360   0.99652   0.00000  Uiso   1.00
H54    H     0.07769   0.32031   0.07259   0.00000  Uiso   1.00
H55    H     0.95452   0.81612   0.92607   0.00000  Uiso   1.00
H56    H     0.03478   0.81120   0.07531   0.00000  Uiso   1.00
H57    H     0.92946   0.73527   0.88360   0.00000  Uiso   1.00
H58    H     0.97951   0.68010   0.89646   0.00000  Uiso   1.00
H59    H     0.91037   0.67731   0.92492   0.00000  Uiso   1.00
H60    H     0.07779   0.67281   0.07676   0.00000  Uiso   1.00
H61    H     0.06026   0.72720   0.11782   0.00000  Uiso   1.00
H62    H     0.00892   0.67212   0.10577   0.00000  Uiso   1.00
O63    O     0.90821   0.64062   0.04484   0.00000  Uiso   1.00
O64    O     0.08123   0.64906   0.95666   0.00000  Uiso   1.00
H65    H     0.11752   0.55514   0.93623   0.00000  Uiso   1.00
H66    H     0.87181   0.54297   0.06289   0.00000  Uiso   1.00
H67    H     0.11730   0.45403   0.93461   0.00000  Uiso   1.00
H68    H     0.90243   0.28148   0.89990   0.00000  Uiso   1.00
H69    H     0.94656   0.34180   0.91116   0.00000  Uiso   1.00
H70    H     0.95645   0.18595   0.92110   0.00000  Uiso   1.00
H71    H     0.87146   0.44197   0.06105   0.00000  Uiso   1.00
H72    H     0.05900   0.26209   0.11382   0.00000  Uiso   1.00
O73    O     0.90751   0.34805   0.04025   0.00000  Uiso   1.00
O74    O     0.08058   0.35644   0.95217   0.00000  Uiso   1.00
H75    H     0.97275   0.28745   0.87408   0.00000  Uiso   1.00
H76    H     0.83091   1.00281   0.04343   0.00000  Uiso   1.00
C77    C     0.16762   1.00025   1.03445   0.00000  Uiso   1.00
C78    C     0.18874   0.99839   0.98582   0.00000  Uiso   1.00
C79    C     0.24795   0.99838   0.97873   0.00000  Uiso   1.00
C80    C     0.28665   1.00052   1.02106   0.00000  Uiso   1.00
C81    C     0.26560   1.00270   0.07011   0.00000  Uiso   1.00
C82    C     0.20622   0.00244   0.07639   0.00000  Uiso   1.00
C83    C     0.26965   0.99588   0.92619   0.00000  Uiso   1.00
C84    C     0.30627   0.00532   0.11560   0.00000  Uiso   1.00
C85    C     0.37649   0.04951   1.00616   0.00000  Uiso   1.00
C86    C     0.43592   0.05014   0.99964   0.00000  Uiso   1.00
C87    C     0.46515   0.99930   1.00167   0.00000  Uiso   1.00
C88    C     0.43470   0.94888   1.01002   0.00000  Uiso   1.00
C89    C     0.37529   0.95033   1.01628   0.00000  Uiso   1.00
C90    C     0.46671   0.10018  -0.00881   0.00000  Uiso   1.00
C91    C     0.52581   0.09976  -0.01511   0.00000  Uiso   1.00
C92    C     0.55540   0.04929   0.98687   0.00000  Uiso   1.00
C93    C     0.52495   0.99887   0.99530   0.00000  Uiso   1.00
C94    C     0.55418   0.94802   0.99733   0.00000  Uiso   1.00
C95    C     0.52338   0.89799   1.00571   0.00000  Uiso   1.00
C96    C     0.46427   0.89841   1.01197   0.00000  Uiso   1.00
C97    C     0.61479   0.04780  -0.01949   0.00000  Uiso   1.00
C98    C     0.61360   0.94863   0.99078   0.00000  Uiso   1.00
C99    C     0.70338   0.99754   0.97558   0.00000  Uiso   1.00
C100   C     0.68560   0.99036   0.88009   0.00000  Uiso   1.00
C101   C     0.78402  -0.00601   0.92063   0.00000  Uiso   1.00
C102   C     0.72030   1.00407   0.07034   0.00000  Uiso   1.00
C103   C     0.80127   1.00024   0.01097   0.00000  Uiso   1.00
C104   C     0.74204   1.00049   0.01790   0.00000  Uiso   1.00
C105   C     0.72466   0.99414   0.92661   0.00000  Uiso   1.00
C106   C     0.82252  -0.00283   0.96253   0.00000  Uiso   1.00
H107   H     0.69348   0.96676   0.07963   0.00000  Uiso   1.00
N108   N     0.34753   1.00012   1.01428   0.00000  Uiso   1.00
N109   N     0.64254   0.99801   0.98255   0.00000  Uiso   1.00
H110   H     0.69416   0.04194   0.07250   0.00000  Uiso   1.00
H111   H     0.15901   0.99661   0.95336   0.00000  Uiso   1.00
H112   H     0.19005   0.00402   0.11403   0.00000  Uiso   1.00
H113   H     0.23392   0.99408   0.89721   0.00000  Uiso   1.00
H114   H     0.29641   1.03341   0.91751   0.00000  Uiso   1.00
H115   H     0.29595   0.95821   0.92346   0.00000  Uiso   1.00
H116   H     0.33428   0.04297   0.11209   0.00000  Uiso   1.00
H117   H     0.28306   0.00723   0.15123   0.00000  Uiso   1.00
H118   H     0.33333   0.96775   0.11832   0.00000  Uiso   1.00
O119   O     0.34491   0.90161   1.02449   0.00000  Uiso   1.00
O120   O     0.34728   0.09866   0.00439   0.00000  Uiso   1.00
H121   H     0.44528   0.13983  -0.01062   0.00000  Uiso   1.00
H122   H     0.44184   0.85909   1.01832   0.00000  Uiso   1.00
H123   H     0.54820   0.13910  -0.02148   0.00000  Uiso   1.00
H124   H     0.69297   0.95062   0.86169   0.00000  Uiso   1.00
H125   H     0.63958  -0.00808   0.88847   0.00000  Uiso   1.00
H126   H     0.80018  -0.00866   0.88307   0.00000  Uiso   1.00
H127   H     0.54484   0.85835   1.00744   0.00000  Uiso   1.00
H128   H     0.75600   1.00629   0.09931   0.00000  Uiso   1.00
O129   O     0.64279   0.89950   0.99245   0.00000  Uiso   1.00
O130   O     0.64513   0.09648  -0.02797   0.00000  Uiso   1.00
H131   H     0.69511   0.02551   0.85314   0.00000  Uiso   1.00
H132   H     0.08192   0.02466   0.78655   0.00000  Uiso   1.00
C133   C     0.99740  -0.00516   0.20622   0.00000  Uiso   1.00
C134   C     0.94696   0.98257   0.23166   0.00000  Uiso   1.00
C135   C     0.94668   0.98255   0.28460   0.00000  Uiso   1.00
C136   C     0.99759  -0.00430   0.31259   0.00000  Uiso   1.00
C137   C     0.04848   0.00827   0.28716   0.00000  Uiso   1.00
C138   C     0.04803   0.00739   0.23417   0.00000  Uiso   1.00
C139   C     0.89228   0.96807   0.31111   0.00000  Uiso   1.00
C140   C     0.10301   0.02286   0.31638   0.00000  Uiso   1.00
C141   C     0.01366   0.94981   0.39516   0.00000  Uiso   1.00
C142   C     0.01318   0.94925   0.44823   0.00000  Uiso   1.00
C143   C     0.99547  -0.00291   0.47192   0.00000  Uiso   1.00
C144   C     0.97893   0.04462   0.44237   0.00000  Uiso   1.00
C145   C     0.98046   0.04336   0.38942   0.00000  Uiso   1.00
C146   C     0.02977   0.90212   0.47809   0.00000  Uiso   1.00
C147   C     0.02869   0.90243   0.53080   0.00000  Uiso   1.00
C148   C     0.01100   0.94988   0.55483   0.00000  Uiso   1.00
C149   C     0.99432   0.99738   0.52528   0.00000  Uiso   1.00
C150   C     0.97648   0.04518   0.54895   0.00000  Uiso   1.00
C151   C     0.95990   0.09230   0.51910   0.00000  Uiso   1.00
C152   C     0.96118   0.09205   0.46640   0.00000  Uiso   1.00
C153   C     0.00965   0.95122   0.60779   0.00000  Uiso   1.00
C154   C     0.97586   0.04458   0.60201   0.00000  Uiso   1.00
C155   C     0.99229   0.99892   0.68458   0.00000  Uiso   1.00
C156   C     0.88614   0.97053   0.68280   0.00000  Uiso   1.00
C157   C     0.94211   0.98811   0.76318   0.00000  Uiso   1.00
C158   C     0.09733   0.02781   0.68571   0.00000  Uiso   1.00
C159   C     0.04286   0.01392   0.76529   0.00000  Uiso   1.00
C160   C     0.04307   0.01313   0.71238   0.00000  Uiso   1.00
C161   C     0.94149   0.98623   0.71031   0.00000  Uiso   1.00
C162   C    -0.00740   1.00150   0.79091   0.00000  Uiso   1.00
H163   H     0.08998   0.06424   0.65923   0.00000  Uiso   1.00
N164   N     0.99748  -0.00360   0.36697   0.00000  Uiso   1.00
N165   N     0.99246   0.99815   0.63022   0.00000  Uiso   1.00
H166   H     0.11068  -0.00801   0.66410   0.00000  Uiso   1.00
H167   H     0.90781   0.97260   0.21021   0.00000  Uiso   1.00
H168   H     0.08705   0.01717   0.21462   0.00000  Uiso   1.00
H169   H     0.85655   0.95775   0.28389   0.00000  Uiso   1.00
H170   H     0.89931   0.93146   0.33745   0.00000  Uiso   1.00
H171   H     0.87917   1.00382   0.33294   0.00000  Uiso   1.00
H172   H     0.11584  -0.01260   0.34230   0.00000  Uiso   1.00
H173   H     0.13879   0.03248   0.29091   0.00000  Uiso   1.00
H174   H     0.09626   0.05997   0.33891   0.00000  Uiso   1.00
O175   O     0.96476   0.08941   0.36004   0.00000  Uiso   1.00
O176   O     0.03044   0.90342   0.37144   0.00000  Uiso   1.00
H177   H     0.04368   0.86484   0.46086   0.00000  Uiso   1.00
H178   H     0.94823   0.12913   0.44457   0.00000  Uiso   1.00
H179   H     0.04176   0.86540   0.55263   0.00000  Uiso   1.00
H180   H     0.85305   1.00164   0.68962   0.00000  Uiso   1.00
H181   H     0.89045   0.96857   0.64138   0.00000  Uiso   1.00
H182   H     0.90312   0.97826   0.78276   0.00000  Uiso   1.00
H183   H     0.94600   0.12958   0.53633   0.00000  Uiso   1.00
H184   H     0.13303   0.03852   0.71284   0.00000  Uiso   1.00
O185   O     0.95843   0.09074   0.62572   0.00000  Uiso   1.00
O186   O     0.02565   0.90529   0.63721   0.00000  Uiso   1.00
H187   H     0.87123   0.92897   0.69719   0.00000  Uiso   1.00
loop_
_geom_bond_atom_site_label_1
_geom_bond_atom_site_label_2
_geom_bond_distance
_geom_bond_site_symmetry_2
_ccdc_geom_bond_type
C0     O4      1.284   .     A
C0     O5      1.280   1_455 A
C0     C133    1.476   1_455 S
Ho1    O4      2.188   .     S
Ho1    O6      2.185   .     S
Ho1    O17     2.200   .     S
Ho1    O5      2.175   1_455 S
Ho1    O7      2.151   1_544 S
Ho1    O10     2.203   1_545 S
Ho1    O15     2.160   1_455 S
C2     O12     1.284   .     A
C2     O13     1.280   1_655 A
C2     C162    1.475   1_655 S
Ho3    O11     2.200   .     S
Ho3    O12     2.187   .     S
Ho3    O14     2.184   .     S
Ho3    O7      2.160   1_655 S
Ho3    O13     2.174   1_655 S
Ho3    O15     2.153   1_566 S
Ho3    O16     2.204   1_565 S
O5     C0      1.280   1_655 A
O5     Ho1     2.175   1_655 S
O6     C8      1.231   1_554 D
O7     Ho1     2.151   1_566 S
O7     Ho3     2.160   1_455 S
O7     C8      1.401   1_565 S
C8     O6      1.231   1_556 D
C8     O7      1.401   1_545 S
C8     C77     1.474   1_545 S
C9     O14     1.231   1_554 D
C9     O15     1.401   1_565 S
C9     C106    1.474   1_564 S
O10    C19     1.302   .     A
O10    Ho1     2.203   1_565 S
O11    C19     1.301   1_656 A
O13    C2      1.280   1_455 A
O13    Ho3     2.174   1_455 S
O14    C9      1.231   1_556 D
O15    Ho1     2.160   1_655 S
O15    Ho3     2.153   1_544 S
O15    C9      1.401   1_545 S
O16    C18     1.302   .     A
O16    Ho3     2.204   1_545 S
O17    C18     1.301   1_454 A
C18    O17     1.301   1_656 A
C18    C50     1.479   1_655 S
C19    O11     1.301   1_454 A
C19    C21     1.479   1_455 S
H20    C47     1.084   .     S
C21    C22     1.404   1_554 A
C21    C26     1.403   1_655 A
C21    C19     1.479   1_655 S
C22    C23     1.402   .     A
C22    H55     1.084   .     S
C22    C21     1.404   1_556 A
C23    C27     1.506   .     S
C23    C24     1.411   1_556 A
C24    N52     1.440   .     S
C24    C23     1.411   1_554 A
C24    C25     1.413   1_655 A
C25    C26     1.404   .     A
C25    C28     1.505   .     S
C25    C24     1.413   1_455 A
C26    H56     1.084   .     S
C26    C21     1.403   1_455 A
C27    H57     1.110   .     S
C27    H58     1.110   .     S
C27    H59     1.110   .     S
C28    H60     1.111   .     S
C28    H61     1.111   .     S
C28    H62     1.110   .     S
C29    C30     1.405   .     A
C29    O64     1.374   .     S
C29    N52     1.370   1_456 A
C30    C34     1.405   .     A
C30    C31     1.409   1_456 A
C31    C32     1.409   .     A
C31    C30     1.409   1_654 A
C31    C37     1.414   1_554 A
C32    C33     1.405   .     A
C32    C40     1.406   .     A
C33    N52     1.371   .     A
C33    O63     1.373   .     S
C34    C35     1.397   .     A
C34    H65     1.083   .     S
C35    C36     1.406   .     A
C35    H67     1.083   .     S
C36    C41     1.405   .     A
C36    C37     1.409   1_455 A
C37    C31     1.414   1_556 A
C37    C36     1.409   1_655 A
C37    C38     1.409   1_556 A
C38    C39     1.405   .     A
C38    C42     1.405   .     A
C38    C37     1.409   1_554 A
C39    C40     1.396   .     A
C39    H71     1.083   .     S
C40    H66     1.083   .     S
C41    O74     1.373   .     S
C41    N53     1.371   1_455 A
C42    O73     1.373   .     S
C42    N53     1.370   1_554 A
C43    C49     1.415   .     A
C43    N53     1.440   .     S
C43    C48     1.412   1_656 A
C44    C49     1.506   .     S
C44    H68     1.110   .     S
C44    H69     1.108   .     S
C44    H75     1.110   .     S
C45    C49     1.402   .     A
C45    H70     1.085   .     S
C45    C50     1.403   1_655 A
C46    C48     1.507   .     S
C46    H51     1.110   .     S
C46    H54     1.111   .     S
C46    H72     1.110   .     S
C47    C48     1.402   .     A
C47    C50     1.404   1_554 A
C48    C43     1.412   1_454 A
C50    C45     1.403   1_455 A
C50    C47     1.404   1_556 A
C50    C18     1.479   1_455 S
N52    C29     1.370   1_654 A
N53    C41     1.371   1_655 A
N53    C42     1.370   1_556 A
H76    C103    1.083   .     S
C77    C78     1.401   .     A
C77    C82     1.403   1_566 A
C77    C8      1.474   1_565 S
C78    C79     1.403   .     A
C78    H111    1.083   .     S
C79    C80     1.412   .     A
C79    C83     1.505   .     S
C80    N108    1.441   .     S
C80    C81     1.412   1_556 A
C81    C80     1.412   1_554 A
C81    C82     1.403   1_565 A
C81    C84     1.505   1_565 S
C82    H112    1.083   .     S
C82    C77     1.403   1_544 A
C82    C81     1.403   1_545 A
C83    H113    1.111   .     S
C83    H114    1.110   .     S
C83    H115    1.110   .     S
C84    H116    1.110   .     S
C84    H117    1.111   .     S
C84    C81     1.505   1_545 S
C84    H118    1.110   1_545 S
C85    C86     1.406   .     A
C85    N108    1.370   1_545 A
C85    O120    1.373   1_556 S
C86    C87     1.409   1_545 A
C86    C90     1.405   1_556 A
C87    C88     1.409   .     A
C87    C93     1.414   .     A
C87    C86     1.409   1_565 A
C88    C89     1.405   .     A
C88    C96     1.405   .     A
C89    N108    1.370   .     A
C89    O119    1.373   .     S
C90    C91     1.397   .     A
C90    H121    1.083   .     S
C90    C86     1.405   1_554 A
C91    H123    1.083   .     S
C91    C92     1.406   1_554 A
C92    C91     1.406   1_556 A
C92    C93     1.409   1_545 A
C92    C97     1.405   1_556 A
C93    C94     1.409   .     A
C93    C92     1.409   1_565 A
C94    C95     1.405   .     A
C94    C98     1.405   .     A
C95    C96     1.397   .     A
C95    H127    1.083   .     S
C96    H122    1.083   .     S
C97    O130    1.373   .     S
C97    C92     1.405   1_554 A
C97    N109    1.370   1_544 A
C98    N109    1.370   .     A
C98    O129    1.373   .     S
C99    C105    1.415   .     A
C99    N109    1.441   .     S
C99    C104    1.412   1_556 A
C100   C105    1.506   .     S
C100   H124    1.110   .     S
C100   H125    1.108   1_565 S
C100   H131    1.109   1_565 S
C101   C106    1.402   .     A
C101   H126    1.084   .     S
C101   C105    1.402   1_545 A
C102   C104    1.505   .     S
C102   H107    1.110   .     S
C102   H128    1.111   .     S
C102   H110    1.110   1_565 S
C103   C104    1.403   .     A
C103   C106    1.401   1_564 A
C104   C99     1.412   1_554 A
C105   C101    1.402   1_565 A
C106   C103    1.401   1_546 A
C106   C9      1.474   1_546 S
N108   C85     1.370   1_565 A
N109   C97     1.370   1_566 A
H110   C102    1.110   1_545 S
H118   C84     1.110   1_565 S
O120   C85     1.373   1_554 S
H125   C100    1.108   1_545 S
H131   C100    1.109   1_545 S
H132   C159    1.084   .     S
C133   C134    1.402   1_545 A
C133   C138    1.403   1_655 A
C133   C0      1.476   1_655 S
C134   C135    1.402   .     A
C134   H167    1.084   .     S
C134   C133    1.402   1_565 A
C135   C139    1.506   .     S
C135   C136    1.412   1_565 A
C136   N164    1.441   .     S
C136   C135    1.412   1_545 A
C136   C137    1.413   1_655 A
C137   C138    1.404   .     A
C137   C140    1.505   .     S
C137   C136    1.413   1_455 A
C138   H168    1.084   .     S
C138   C133    1.403   1_455 A
C139   H169    1.111   .     S
C139   H170    1.111   .     S
C139   H171    1.110   .     S
C140   H172    1.110   .     S
C140   H173    1.111   .     S
C140   H174    1.111   .     S
C141   C142    1.406   .     A
C141   O176    1.374   .     S
C141   N164    1.370   1_465 A
C142   C146    1.406   .     A
C142   C143    1.410   1_465 A
C143   C144    1.409   .     A
C143   C142    1.410   1_645 A
C143   C149    1.415   1_545 A
C144   C145    1.406   .     A
C144   C152    1.406   .     A
C145   N164    1.371   .     A
C145   O175    1.373   .     S
C146   C147    1.398   .     A
C146   H177    1.084   .     S
C147   C148    1.406   .     A
C147   H179    1.083   .     S
C148   C153    1.406   .     A
C148   C149    1.409   1_455 A
C149   C143    1.415   1_565 A
C149   C148    1.409   1_655 A
C149   C150    1.409   1_565 A
C150   C151    1.405   .     A
C150   C154    1.406   .     A
C150   C149    1.409   1_545 A
C151   C152    1.398   .     A
C151   H183    1.083   .     S
C152   H178    1.083   .     S
C153   O186    1.373   .     S
C153   N165    1.371   1_455 A
C154   O185    1.374   .     S
C154   N165    1.370   1_545 A
C155   C161    1.415   .     A
C155   N165    1.441   .     S
C155   C160    1.413   1_665 A
C156   C161    1.506   .     S
C156   H180    1.111   .     S
C156   H181    1.109   .     S
C156   H187    1.110   .     S
C157   C161    1.402   .     A
C157   H182    1.084   .     S
C157   C162    1.402   1_655 A
C158   C160    1.506   .     S
C158   H163    1.111   .     S
C158   H166    1.110   .     S
C158   H184    1.111   .     S
C159   C160    1.402   .     A
C159   C162    1.402   1_545 A
C160   C155    1.413   1_445 A
C162   C157    1.402   1_455 A
C162   C159    1.402   1_565 A
C162   C2      1.475   1_455 S
N164   C141    1.370   1_645 A
N165   C153    1.371   1_655 A
N165   C154    1.370   1_565 A
