data_pcu+N123+E35
_audit_creation_date              2023-11-17
_audit_creation_method            'Materials Studio'
_symmetry_space_group_name_H-M    'P1'
_symmetry_Int_Tables_number       1
_symmetry_cell_setting            triclinic
loop_
_symmetry_equiv_pos_as_xyz
  x,y,z
_cell_length_a                    18.3244
_cell_length_b                    15.8420
_cell_length_c                    15.2417
_cell_angle_alpha                 91.5628
_cell_angle_beta                  86.2125
_cell_angle_gamma                 89.7158
loop_
_atom_site_label
_atom_site_type_symbol
_atom_site_fract_x
_atom_site_fract_y
_atom_site_fract_z
_atom_site_U_iso_or_equiv
_atom_site_adp_type
_atom_site_occupancy
Ce0    Ce    0.07836   1.00078   0.99239   0.00000  Uiso   1.00
Ce1    Ce    0.92064   0.00170  -0.00268   0.00000  Uiso   1.00
C2     C     0.94804   0.99958   0.82190   0.00000  Uiso   1.00
C3     C     0.22563   1.00011   0.99704   0.00000  Uiso   1.00
C4     C     0.99925   0.81818  -0.00803   0.00000  Uiso   1.00
C5     C     0.05171   0.00318   0.16798   0.00000  Uiso   1.00
C6     C     0.77317   0.00248   0.00006   0.00000  Uiso   1.00
C7     C    -0.00116   0.18433   0.99793   0.00000  Uiso   1.00
O8     O     0.88554   0.00095   0.85623   0.00000  Uiso   1.00
O9     O     0.00321   0.99970   0.88108   0.00000  Uiso   1.00
O10    O     0.19370   0.99955   0.92486   0.00000  Uiso   1.00
O11    O     0.18232   1.00106   0.06650   0.00000  Uiso   1.00
O12    O     0.06185   0.85616  -0.00763   0.00000  Uiso   1.00
O13    O     0.93718   0.85788  -0.00707   0.00000  Uiso   1.00
O14    O     0.11367   1.00294   0.13230   0.00000  Uiso   1.00
O15    O     0.99554   0.00238   0.10977   0.00000  Uiso   1.00
O16    O     0.80838   0.00316   0.06963   0.00000  Uiso   1.00
O17    O     0.81340   0.00149   0.92797   0.00000  Uiso   1.00
O18    O     0.93682   0.14532   0.99858   0.00000  Uiso   1.00
O19    O     0.06156   0.14563   0.99594   0.00000  Uiso   1.00
C20    C    -0.00668   0.54806  -0.00676   0.00000  Uiso   1.00
C21    C     0.93032   0.59411  -0.02384   0.00000  Uiso   1.00
C22    C     0.93265   0.68191  -0.02448   0.00000  Uiso   1.00
C23    C    -0.00230   0.72467  -0.00943   0.00000  Uiso   1.00
C24    C     0.06015   0.67642   1.00481   0.00000  Uiso   1.00
N25    N     0.05637   0.59062   1.00597   0.00000  Uiso   1.00
C26    C    -0.00689   0.45455   0.99657   0.00000  Uiso   1.00
N27    N     0.05755   0.41123   0.98381   0.00000  Uiso   1.00
C28    C     0.06117   0.32539   0.98495   0.00000  Uiso   1.00
C29    C    -0.00286   0.27789  -0.00074   0.00000  Uiso   1.00
C30    C     0.93045   0.32145   0.01429   0.00000  Uiso   1.00
C31    C     0.92822   0.40928   0.01364   0.00000  Uiso   1.00
H32    H     0.88338   0.71622  -0.03729   0.00000  Uiso   1.00
H33    H     0.11160   0.70670   1.01623   0.00000  Uiso   1.00
H34    H     0.11389   0.29450   0.97360   0.00000  Uiso   1.00
H35    H     0.87975   0.28775   0.02709   0.00000  Uiso   1.00
H36    H     0.87974   0.56332  -0.03789   0.00000  Uiso   1.00
H37    H     0.87609   0.44069   0.02768   0.00000  Uiso   1.00
C38    C     0.45805   0.00033   0.01057   0.00000  Uiso   1.00
C39    C     0.41206   0.99606   0.08803   0.00000  Uiso   1.00
C40    C     0.33645   0.99615   0.08302   0.00000  Uiso   1.00
C41    C     0.30585  -0.00026   0.00142   0.00000  Uiso   1.00
C42    C     0.35310   0.00303   0.92543   0.00000  Uiso   1.00
N43    N     0.42685   0.00332   0.93189   0.00000  Uiso   1.00
C44    C     0.53930   0.00129   1.01106   0.00000  Uiso   1.00
N45    N     0.57975  -0.00135   0.93259   0.00000  Uiso   1.00
C46    C     0.65420  -0.00075   0.92700   0.00000  Uiso   1.00
C47    C     0.69247   0.00265   0.00368   0.00000  Uiso   1.00
C48    C     0.65227   1.00597   0.08510   0.00000  Uiso   1.00
C49    C     0.57613   1.00565   0.08926   0.00000  Uiso   1.00
H50    H     0.30188   0.99321   0.14329   0.00000  Uiso   1.00
H51    H     0.33158   0.00566   0.86112   0.00000  Uiso   1.00
H52    H     0.68329  -0.00319   0.86281   0.00000  Uiso   1.00
H53    H     0.67972   1.00908   0.14590   0.00000  Uiso   1.00
H54    H     0.43284   0.99214   0.15234   0.00000  Uiso   1.00
H55    H     0.54777   1.00941   0.15353   0.00000  Uiso   1.00
C56    C     0.01438   0.00217   0.44757   0.00000  Uiso   1.00
C57    C     0.08537   0.01458   0.40943   0.00000  Uiso   1.00
C58    C     0.09723   0.01477   0.31827   0.00000  Uiso   1.00
C59    C     0.03868   0.00412   0.26450   0.00000  Uiso   1.00
C60    C     0.96831   0.99414   0.30462   0.00000  Uiso   1.00
N61    N     0.95809   0.99320   0.39391   0.00000  Uiso   1.00
C62    C     0.99887  -0.00028   0.54436   0.00000  Uiso   1.00
N63    N     0.92874   1.01087   0.57865   0.00000  Uiso   1.00
C64    C     0.91059   1.01014   0.66673   0.00000  Uiso   1.00
C65    C    -0.03510  -0.00185   0.72596   0.00000  Uiso   1.00
C66    C     0.03711  -0.01478   0.69223   0.00000  Uiso   1.00
C67    C     0.05426  -0.01487   0.60187   0.00000  Uiso   1.00
H68    H     0.15230   0.02384   0.28985   0.00000  Uiso   1.00
H69    H     0.92167   0.98623   0.26523   0.00000  Uiso   1.00
H70    H     0.85408   1.01984   0.69035   0.00000  Uiso   1.00
H71    H     0.08045  -0.02553   0.73572   0.00000  Uiso   1.00
H72    H     0.13159   0.02533   0.44866   0.00000  Uiso   1.00
H73    H     0.11025  -0.02739   0.57831   0.00000  Uiso   1.00
loop_
_geom_bond_atom_site_label_1
_geom_bond_atom_site_label_2
_geom_bond_distance
_geom_bond_site_symmetry_2
_ccdc_geom_bond_type
Ce0    O9      2.254   .     S
Ce0    O10     2.289   .     S
Ce0    O11     2.278   1_556 S
Ce0    O12     2.312   1_556 S
Ce0    O14     2.268   1_556 S
Ce0    O15     2.268   1_466 S
Ce0    O19     2.312   1_565 S
Ce1    O15     2.265   .     S
Ce1    O16     2.268   .     S
Ce1    O8      2.285   1_554 S
Ce1    O9      2.252   1_644 S
Ce1    O13     2.296   1_545 S
Ce1    O17     2.292   1_554 S
Ce1    O18     2.296   1_554 S
C2     O8      1.227   1_565 D
C2     O9      1.399   1_655 S
C2     C65     1.474   1_665 S
C3     O10     1.280   .     A
C3     O11     1.280   1_556 A
C3     C41     1.476   1_566 S
C4     O13     1.296   .     A
C4     O12     1.298   1_655 A
C4     C23     1.481   1_655 S
C5     C59     1.474   .     S
C5     O14     1.226   1_545 D
C5     O15     1.402   1_455 S
C6     O16     1.277   .     A
C6     C47     1.476   .     S
C6     O17     1.282   1_554 A
C7     O19     1.298   .     A
C7     O18     1.296   1_455 A
C7     C29     1.482   1_556 S
O8     Ce1     2.285   1_556 S
O8     C2      1.227   1_545 D
O9     Ce1     2.252   1_466 S
O9     C2      1.399   1_455 S
O11    Ce0     2.278   1_554 S
O11    C3      1.280   1_554 A
O12    Ce0     2.312   1_554 S
O12    C4      1.298   1_455 A
O13    Ce1     2.296   1_565 S
O14    Ce0     2.268   1_554 S
O14    C5      1.226   1_565 D
O15    Ce0     2.268   1_644 S
O15    C5      1.402   1_655 S
O17    Ce1     2.292   1_556 S
O17    C6      1.282   1_556 A
O18    Ce1     2.296   1_556 S
O18    C7      1.296   1_655 A
O19    Ce0     2.312   1_545 S
C20    C21     1.405   1_455 A
C20    N25     1.363   1_554 A
C20    C26     1.484   1_554 S
C21    C22     1.392   .     A
C21    H36     1.081   .     S
C21    C20     1.405   1_655 A
C22    H32     1.083   .     S
C22    C23     1.403   1_655 A
C23    C22     1.403   1_455 A
C23    C24     1.405   1_554 A
C23    C4      1.481   1_455 S
C24    N25     1.362   .     A
C24    H33     1.082   .     S
C24    C23     1.405   1_556 A
N25    C20     1.363   1_556 A
C26    N27     1.363   .     A
C26    C20     1.484   1_556 S
C26    C31     1.405   1_456 A
N27    C28     1.362   .     A
C28    H34     1.082   .     S
C28    C29     1.405   1_556 A
C29    C28     1.405   1_554 A
C29    C30     1.403   1_455 A
C29    C7      1.482   1_554 S
C30    C31     1.392   .     A
C30    H35     1.083   .     S
C30    C29     1.403   1_655 A
C31    H37     1.081   .     S
C31    C26     1.405   1_654 A
C38    C39     1.408   1_545 A
C38    N43     1.364   1_554 A
C38    C44     1.489   1_554 S
C39    C40     1.393   .     A
C39    H54     1.078   .     S
C39    C38     1.408   1_565 A
C40    H50     1.083   .     S
C40    C41     1.400   1_565 A
C41    C40     1.400   1_545 A
C41    C42     1.402   1_554 A
C41    C3      1.476   1_544 S
C42    N43     1.362   .     A
C42    H51     1.082   .     S
C42    C41     1.402   1_556 A
N43    C38     1.364   1_556 A
C44    N45     1.364   .     A
C44    C38     1.489   1_556 S
C44    C49     1.408   1_546 A
N45    C46     1.361   .     A
C46    H52     1.082   .     S
C46    C47     1.402   1_556 A
C47    C46     1.402   1_554 A
C47    C48     1.400   1_545 A
C48    C49     1.393   .     A
C48    H53     1.083   .     S
C48    C47     1.400   1_565 A
C49    H55     1.078   .     S
C49    C44     1.408   1_564 A
C56    C57     1.406   .     A
C56    N61     1.364   1_445 A
C56    C62     1.485   1_455 S
C57    C58     1.392   .     A
C57    H72     1.080   .     S
C58    C59     1.401   .     A
C58    H68     1.083   .     S
C59    C60     1.402   1_445 A
C60    N61     1.362   .     A
C60    H69     1.082   .     S
C60    C59     1.402   1_665 A
N61    C56     1.364   1_665 A
C62    C56     1.485   1_655 S
C62    N63     1.364   1_545 A
C62    C67     1.407   1_655 A
N63    C64     1.362   .     A
N63    C62     1.364   1_565 A
C64    H70     1.082   .     S
C64    C65     1.403   1_665 A
C65    C66     1.400   .     A
C65    C64     1.403   1_445 A
C65    C2      1.474   1_445 S
C66    C67     1.392   .     A
C66    H71     1.083   .     S
C67    H73     1.080   .     S
C67    C62     1.407   1_455 A
