data_pcu+N205+E8
_audit_creation_date              2023-11-17
_audit_creation_method            'Materials Studio'
_symmetry_space_group_name_H-M    'P1'
_symmetry_Int_Tables_number       1
_symmetry_cell_setting            triclinic
loop_
_symmetry_equiv_pos_as_xyz
  x,y,z
_cell_length_a                    13.5302
_cell_length_b                    16.7167
_cell_length_c                    12.6251
_cell_angle_alpha                 84.9595
_cell_angle_beta                  88.7842
_cell_angle_gamma                 93.4213
loop_
_atom_site_label
_atom_site_type_symbol
_atom_site_fract_x
_atom_site_fract_y
_atom_site_fract_z
_atom_site_U_iso_or_equiv
_atom_site_adp_type
_atom_site_occupancy
Y0     Y     0.04067   0.11079  -0.02131   0.00000  Uiso   1.00
Y1     Y     0.95958   0.88943   1.02145   0.00000  Uiso   1.00
C2     C     0.76812   0.92740   1.03160   0.00000  Uiso   1.00
C3     C     0.98940   0.00919   0.18964   0.00000  Uiso   1.00
C4     C     0.01571   0.27045  -0.03095   0.00000  Uiso   1.00
C5     C     0.23216   0.07292  -0.03160   0.00000  Uiso   1.00
C6     C     0.01107   0.99103   0.81049   0.00000  Uiso   1.00
C7     C     0.98412   0.72967   1.03145   0.00000  Uiso   1.00
O8     O     0.82361   0.94334   0.95037   0.00000  Uiso   1.00
O9     O     0.81125   0.89110   0.10718   0.00000  Uiso   1.00
O10    O     0.95220   0.06091   0.12480   0.00000  Uiso   1.00
O11    O     1.02962   0.94933   0.15556   0.00000  Uiso   1.00
O12    O    -0.01090   0.22636   0.89758   0.00000  Uiso   1.00
O13    O     0.05579   0.23206   0.04517   0.00000  Uiso   1.00
O14    O     0.17637   0.05612   0.04926   0.00000  Uiso   1.00
O15    O     0.18937   0.11013   0.89330   0.00000  Uiso   1.00
O16    O     0.04816   0.93928   0.87538   0.00000  Uiso   1.00
O17    O    -0.02921   0.05089   0.84452   0.00000  Uiso   1.00
O18    O     1.01070   0.77379   0.10290   0.00000  Uiso   1.00
O19    O     0.94428   0.76808   0.95519   0.00000  Uiso   1.00
C20    C     0.97754   0.51999  -0.04335   0.00000  Uiso   1.00
C21    C     0.02189   0.48006   1.04410   0.00000  Uiso   1.00
N22    N     0.05312   0.52224   1.12553   0.00000  Uiso   1.00
C23    C     0.04196   0.60268   1.12359   0.00000  Uiso   1.00
C24    C    -0.00253   0.64284   1.03622   0.00000  Uiso   1.00
N25    N     0.96634   0.60027  -0.04532   0.00000  Uiso   1.00
N26    N     0.94650   0.47785  -0.12488   0.00000  Uiso   1.00
C27    C     0.95777   0.39743  -0.12300   0.00000  Uiso   1.00
C28    C     1.00217   0.35725  -0.03558   0.00000  Uiso   1.00
N29    N     0.03318   0.39979   1.04603   0.00000  Uiso   1.00
H30    H     0.06761   0.63488   1.18951   0.00000  Uiso   1.00
H31    H     0.93236   0.36528  -0.18906   0.00000  Uiso   1.00
C32    C     0.47082   0.99041   1.04637   0.00000  Uiso   1.00
C33    C     0.52934   0.00967  -0.04656   0.00000  Uiso   1.00
N34    N     0.48993   0.04926  -0.13262   0.00000  Uiso   1.00
C35    C     0.39448   0.07050  -0.13003   0.00000  Uiso   1.00
C36    C     0.33568   0.05130  -0.03711   0.00000  Uiso   1.00
N37    N     0.37554   1.01156   1.04899   0.00000  Uiso   1.00
N38    N     0.51023   0.95085   1.13244   0.00000  Uiso   1.00
C39    C     0.60570   0.92968   1.12989   0.00000  Uiso   1.00
C40    C     0.66454   0.94892   1.03701   0.00000  Uiso   1.00
N41    N     0.62465  -0.01142  -0.04914   0.00000  Uiso   1.00
H42    H     0.36485   0.10194  -0.19980   0.00000  Uiso   1.00
H43    H     0.63527   0.89817   1.19964   0.00000  Uiso   1.00
C44    C     1.02205   0.96738   0.47981   0.00000  Uiso   1.00
C45    C    -0.02126   0.03296   0.52030   0.00000  Uiso   1.00
N46    N    -0.06017   0.08956   0.45247   0.00000  Uiso   1.00
C47    C    -0.05780   0.08359   0.34572   0.00000  Uiso   1.00
C48    C    -0.01454   0.01789   0.30471   0.00000  Uiso   1.00
N49    N     1.02443   0.96134   0.37328   0.00000  Uiso   1.00
N50    N     1.06097   0.91079   0.54765   0.00000  Uiso   1.00
C51    C     1.05856   0.91675   0.65441   0.00000  Uiso   1.00
C52    C     1.01515   0.98237   0.69542   0.00000  Uiso   1.00
N53    N    -0.02375   0.03896   0.62684   0.00000  Uiso   1.00
H54    H    -0.08933   0.12969   0.29356   0.00000  Uiso   1.00
H55    H     1.09008   0.87064   0.70657   0.00000  Uiso   1.00
loop_
_geom_bond_atom_site_label_1
_geom_bond_atom_site_label_2
_geom_bond_distance
_geom_bond_site_symmetry_2
_ccdc_geom_bond_type
Y0     O13     2.261   .     S
Y0     O14     2.264   .     S
Y0     O10     2.247   1_455 S
Y0     O12     2.261   1_554 S
Y0     O15     2.263   1_554 S
Y0     O17     2.240   1_554 S
Y1     O8      2.264   .     S
Y1     O19     2.261   .     S
Y1     O9      2.263   1_556 S
Y1     O11     2.241   1_556 S
Y1     O16     2.247   1_655 S
Y1     O18     2.261   1_556 S
C2     O8      1.258   .     A
C2     C40     1.469   .     S
C2     O9      1.258   1_556 A
C3     O10     1.271   .     A
C3     O11     1.270   1_545 A
C3     C48     1.473   1_655 S
C4     O13     1.259   .     A
C4     O12     1.259   1_554 A
C4     C28     1.470   1_455 S
C5     O14     1.258   .     A
C5     C36     1.469   .     S
C5     O15     1.258   1_554 A
C6     O16     1.271   .     A
C6     O17     1.270   1_565 A
C6     C52     1.473   1_455 S
C7     O19     1.259   .     A
C7     O18     1.259   1_556 A
C7     C24     1.470   1_655 S
O9     Y1      2.263   1_554 S
O9     C2      1.258   1_554 A
O10    Y0      2.247   1_655 S
O11    Y1      2.241   1_554 S
O11    C3      1.270   1_565 A
O12    Y0      2.261   1_556 S
O12    C4      1.259   1_556 A
O15    Y0      2.263   1_556 S
O15    C5      1.258   1_556 A
O16    Y1      2.247   1_455 S
O17    Y0      2.240   1_556 S
O17    C6      1.270   1_545 A
O18    Y1      2.261   1_554 S
O18    C7      1.259   1_554 A
C20    N25     1.358   .     A
C20    N26     1.357   .     A
C20    C21     1.404   1_654 A
C21    N22     1.358   .     A
C21    N29     1.358   .     A
C21    C20     1.404   1_456 A
N22    C23     1.360   .     A
C23    C24     1.406   .     A
C23    H30     1.082   .     S
C24    N25     1.362   1_456 A
C24    C7      1.470   1_455 S
N25    C24     1.362   1_654 A
N26    C27     1.360   .     A
C27    C28     1.406   .     A
C27    H31     1.082   .     S
C28    N29     1.362   1_654 A
C28    C4      1.470   1_655 S
N29    C28     1.362   1_456 A
C32    N37     1.357   .     A
C32    N38     1.357   .     A
C32    C33     1.404   1_566 A
C33    N34     1.358   .     A
C33    N41     1.358   .     A
C33    C32     1.404   1_544 A
N34    C35     1.360   .     A
C35    C36     1.406   .     A
C35    H42     1.082   .     S
C36    N37     1.362   1_544 A
N37    C36     1.362   1_566 A
N38    C39     1.360   .     A
C39    C40     1.406   .     A
C39    H43     1.082   .     S
C40    N41     1.362   1_566 A
N41    C40     1.362   1_544 A
C44    N49     1.357   .     A
C44    N50     1.357   .     A
C44    C45     1.403   1_665 A
C45    N46     1.357   .     A
C45    N53     1.357   .     A
C45    C44     1.403   1_445 A
N46    C47     1.360   .     A
C47    C48     1.407   .     A
C47    H54     1.082   .     S
C48    N49     1.362   1_445 A
C48    C3      1.473   1_455 S
N49    C48     1.362   1_665 A
N50    C51     1.360   .     A
C51    C52     1.407   .     A
C51    H55     1.082   .     S
C52    N53     1.362   1_665 A
C52    C6      1.473   1_655 S
N53    C52     1.362   1_445 A
