data_pcu+N173+E225
_audit_creation_date              2023-11-17
_audit_creation_method            'Materials Studio'
_symmetry_space_group_name_H-M    'P1'
_symmetry_Int_Tables_number       1
_symmetry_cell_setting            triclinic
loop_
_symmetry_equiv_pos_as_xyz
  x,y,z
_cell_length_a                    18.4802
_cell_length_b                    22.2646
_cell_length_c                    18.5615
_cell_angle_alpha                 115.2203
_cell_angle_beta                  83.4670
_cell_angle_gamma                 40.1729
loop_
_atom_site_label
_atom_site_type_symbol
_atom_site_fract_x
_atom_site_fract_y
_atom_site_fract_z
_atom_site_U_iso_or_equiv
_atom_site_adp_type
_atom_site_occupancy
Gd0    Gd    0.20247   0.75492   0.85881   0.00000  Uiso   1.00
Gd1    Gd    0.77751   0.26026   0.13415   0.00000  Uiso   1.00
O2     O     0.70204   0.21571   0.09725   0.00000  Uiso   1.00
O3     O     0.92097   1.00314   1.02583   0.00000  Uiso   1.00
O4     O     1.14524   0.82769   0.78658   0.00000  Uiso   1.00
O5     O     0.01521   0.02072   0.94183   0.00000  Uiso   1.00
O6     O     0.24480   0.66922   0.91439   0.00000  Uiso   1.00
O7     O     1.12795   0.71198   0.86191   0.00000  Uiso   1.00
O8     O     0.31334   0.76663   0.86365   0.00000  Uiso   1.00
C9     C     0.18008   0.66794   0.89891   0.00000  Uiso   1.00
O10    O     0.06866   0.02209   0.00438   0.00000  Uiso   1.00
O11    O     0.00217   0.97733   0.06347   0.00000  Uiso   1.00
C12    C     1.04829  -0.04344   0.85131   0.00000  Uiso   1.00
O13    O     0.78863   0.22293   0.23224   0.00000  Uiso   1.00
O14    O     0.78707   0.30830   1.05479   0.00000  Uiso   1.00
O15    O    -0.17010   0.32475   0.15779   0.00000  Uiso   1.00
C16    C     0.79818   0.08930   0.04196   0.00000  Uiso   1.00
C17    C     0.82650   0.33042   0.09240   0.00000  Uiso   1.00
C18    C    -0.10310   1.09314   0.17937   0.00000  Uiso   1.00
C19    C     0.23124   0.88909   0.93191   0.00000  Uiso   1.00
C20    C     0.15924   0.62645   0.92684   0.00000  Uiso   1.00
C21    C     0.09235   0.62241   0.90402   0.00000  Uiso   1.00
C22    C     0.05846   0.59637   0.93949   0.00000  Uiso   1.00
C23    C     1.09779   0.56712  -0.00590   0.00000  Uiso   1.00
C24    C     1.16387   0.57188   0.01724   0.00000  Uiso   1.00
C25    C     1.19693   0.59892  -0.01761   0.00000  Uiso   1.00
C26    C     1.07915   0.46561   0.96481   0.00000  Uiso   1.00
H27    H     0.93795   0.35659   0.14725   0.00000  Uiso   1.00
H28    H     1.03035   0.37803   0.08099   0.00000  Uiso   1.00
H29    H    -0.08639   0.37528   0.89263   0.00000  Uiso   1.00
H30    H    -0.17842   0.35238   0.95857   0.00000  Uiso   1.00
H31    H     0.94394   0.53494   0.10079   0.00000  Uiso   1.00
O32    O     0.03424   0.38669   0.93746   0.00000  Uiso   1.00
O33    O     1.06015   0.54594   0.03536   0.00000  Uiso   1.00
C34    C     0.86920   0.35610   0.06023   0.00000  Uiso   1.00
C35    C     0.92777   0.36455   0.09432   0.00000  Uiso   1.00
C36    C     0.97963   0.37805   0.05694   0.00000  Uiso   1.00
C37    C     0.97178   0.38526   0.98562   0.00000  Uiso   1.00
C38    C    -0.08556   0.37567   0.95113   0.00000  Uiso   1.00
C39    C    -0.13665   0.36141   0.98799   0.00000  Uiso   1.00
C40    C     1.01598   0.46610   0.00846   0.00000  Uiso   1.00
H41    H    -0.00314   0.60390   0.92761   0.00000  Uiso   1.00
H42    H     1.19270   0.55167   0.06051   0.00000  Uiso   1.00
H43    H     0.06034   0.64506   0.86270   0.00000  Uiso   1.00
H44    H     0.15023   0.39770   0.87262   0.00000  Uiso   1.00
H45    H     1.25073   0.59928  -0.00042   0.00000  Uiso   1.00
C46    C     0.32269  -0.12310   0.92963   0.00000  Uiso   1.00
C47    C     0.49150   0.73676   0.86466   0.00000  Uiso   1.00
C48    C     0.57511   0.72697   0.86788   0.00000  Uiso   1.00
C49    C     0.49423   0.85478  -0.06752   0.00000  Uiso   1.00
C50    C     0.32630   0.99464  -0.00301   0.00000  Uiso   1.00
C51    C     0.24156   0.00539  -0.00428   0.00000  Uiso   1.00
C52    C     0.58803   0.88509   0.90877   0.00000  Uiso   1.00
H53    H     0.81250   0.96788   0.06177   0.00000  Uiso   1.00
H54    H     0.76331   0.89429  -0.00536   0.00000  Uiso   1.00
H55    H     0.61927   1.07779   0.89133   0.00000  Uiso   1.00
H56    H     0.68734   1.13666   0.94781   0.00000  Uiso   1.00
H57    H     0.58916   0.95916   0.02303   0.00000  Uiso   1.00
O58    O     0.64106   0.95343   0.90559   0.00000  Uiso   1.00
O59    O     0.57308   0.84799  -0.05575   0.00000  Uiso   1.00
C60    C     0.76178   1.05051   0.00433   0.00000  Uiso   1.00
C61    C     0.77471   0.98848   0.02162   0.00000  Uiso   1.00
C62    C     0.73899   0.95252  -0.01228   0.00000  Uiso   1.00
C63    C     0.67842   0.98756   0.94268   0.00000  Uiso   1.00
C64    C     0.66142   1.05354   0.92859   0.00000  Uiso   1.00
C65    C     0.70201   1.08541   0.95944   0.00000  Uiso   1.00
C66    C     0.60583   0.93356  -0.04848   0.00000  Uiso   1.00
H67    H     0.70383   0.61916   0.81936   0.00000  Uiso   1.00
H68    H     0.26030   1.09587   0.05021   0.00000  Uiso   1.00
H69    H     0.55831   0.63521   0.81312   0.00000  Uiso   1.00
H70    H     0.59239   0.86860   0.84288   0.00000  Uiso   1.00
H71    H     0.11313   0.11407   0.04680   0.00000  Uiso   1.00
C72    C     0.90572   0.07276   0.24627   0.00000  Uiso   1.00
C73    C     0.76742   0.20176   0.37277   0.00000  Uiso   1.00
C74    C     0.77597   0.18223   0.43594   0.00000  Uiso   1.00
C75    C    -0.07445   1.03233   0.37313   0.00000  Uiso   1.00
C76    C     0.06199   0.90432   0.24719   0.00000  Uiso   1.00
C77    C     0.05372   0.92391   0.18426   0.00000  Uiso   1.00
C78    C    -0.14217   0.11430   0.54557   0.00000  Uiso   1.00
H79    H     0.22945   0.80956   0.63311   0.00000  Uiso   1.00
H80    H     0.12671   0.90691   0.57106   0.00000  Uiso   1.00
H81    H     0.61199   0.34791   0.93288   0.00000  Uiso   1.00
H82    H     0.71404   0.25125   0.99542   0.00000  Uiso   1.00
H83    H    -0.06010   0.98935   0.55926   0.00000  Uiso   1.00
O84    O     0.79598   0.19451   0.71483   0.00000  Uiso   1.00
O85    O    -0.06095   1.00519   0.43120   0.00000  Uiso   1.00
C86    C    -0.01939   1.02285   0.81947   0.00000  Uiso   1.00
C87    C     0.09409   0.92744   0.69952   0.00000  Uiso   1.00
C88    C     0.03482   0.98305   0.66402   0.00000  Uiso   1.00
C89    C    -0.14018   0.13435   0.74720   0.00000  Uiso   1.00
C90    C     0.74701   0.23015   0.86712   0.00000  Uiso   1.00
C91    C     0.80631   0.17432   0.90263   0.00000  Uiso   1.00
C92    C    -0.13086   1.09156   0.60275   0.00000  Uiso   1.00
H93    H     0.66508   0.28364   0.53304   0.00000  Uiso   1.00
H94    H     0.17692   0.78836   0.19751   0.00000  Uiso   1.00
H95    H     0.65219   0.31747   0.42261   0.00000  Uiso   1.00
H96    H     0.79279   0.21284   0.58637   0.00000  Uiso   1.00
H97    H     0.16453   0.82268   0.08744   0.00000  Uiso   1.00
loop_
_geom_bond_atom_site_label_1
_geom_bond_atom_site_label_2
_geom_bond_distance
_geom_bond_site_symmetry_2
_ccdc_geom_bond_type
Gd0    O6      2.213   .     S
Gd0    O8      2.261   .     S
Gd0    O3      2.238   1_455 S
Gd0    O4      2.258   1_455 S
Gd0    O7      2.203   1_455 S
Gd0    O11     2.326   1_556 S
Gd1    O2      2.270   .     S
Gd1    O13     2.272   .     S
Gd1    O5      2.211   1_654 S
Gd1    O10     2.331   1_655 S
Gd1    O14     2.218   1_554 S
Gd1    O15     2.208   1_655 S
O2     C16     1.270   .     A
O3     Gd0     2.238   1_655 S
O3     C16     1.274   1_566 A
O4     Gd0     2.258   1_655 S
O4     C12     1.266   1_565 A
O5     Gd1     2.211   1_456 S
O5     C12     1.274   1_455 A
O6     C9      1.279   .     A
O7     Gd0     2.203   1_655 S
O7     C9      1.282   1_655 A
O8     C19     1.280   .     A
C9     C20     1.475   .     S
C9     O7      1.282   1_455 A
O10    Gd1     2.331   1_455 S
O10    C19     1.302   1_544 A
O11    C18     1.310   .     A
O11    Gd0     2.326   1_554 S
C12    O4      1.266   1_545 A
C12    O5      1.274   1_655 A
C12    C86     1.477   1_645 S
O13    C18     1.272   1_645 A
O14    Gd1     2.218   1_556 S
O14    C17     1.278   1_556 A
O15    Gd1     2.208   1_455 S
O15    C17     1.276   1_455 A
C16    O3      1.274   1_544 A
C16    C60     1.472   1_545 S
C17    C34     1.476   .     S
C17    O14     1.278   1_554 A
C17    O15     1.276   1_655 A
C18    O13     1.272   1_465 A
C18    C72     1.479   1_465 S
C19    O10     1.302   1_566 A
C19    C46     1.485   1_565 S
C20    C21     1.404   .     A
C20    C25     1.405   1_456 A
C21    C22     1.396   .     A
C21    H43     1.081   .     S
C22    H41     1.082   .     S
C22    C23     1.409   1_456 A
C23    C24     1.402   .     A
C23    O33     1.407   .     S
C23    C22     1.409   1_654 A
C24    C25     1.399   .     A
C24    H42     1.082   .     S
C25    H45     1.083   .     S
C25    C20     1.405   1_654 A
C26    O33     1.406   1_556 S
C26    C40     1.333   1_556 D
C26    H44     1.090   1_655 S
H27    C35     1.082   .     S
H28    C36     1.083   .     S
H29    C38     1.084   .     S
H30    C39     1.084   .     S
H31    C40     1.087   .     S
O32    C37     1.407   1_455 S
O32    C40     1.406   1_456 S
O33    C26     1.406   1_554 S
C34    C35     1.405   .     A
C34    C39     1.404   1_654 A
C35    C36     1.399   .     A
C36    C37     1.410   1_554 A
C37    O32     1.407   1_655 S
C37    C36     1.410   1_556 A
C37    C38     1.401   1_655 A
C38    C39     1.399   .     A
C38    C37     1.401   1_455 A
C39    C34     1.404   1_456 A
C40    C26     1.333   1_554 D
C40    O32     1.406   1_654 S
H44    C26     1.090   1_455 S
C46    C47     1.408   1_545 A
C46    C51     1.405   1_556 A
C46    C19     1.485   1_545 S
C47    C48     1.399   .     A
C47    H69     1.083   .     S
C47    C46     1.408   1_565 A
C48    H67     1.084   .     S
C48    C49     1.398   1_556 A
C49    C50     1.404   .     A
C49    O59     1.399   .     S
C49    C48     1.398   1_554 A
C50    H68     1.082   .     S
C50    C51     1.397   1_565 A
C51    H71     1.069   .     S
C51    C46     1.405   1_554 A
C51    C50     1.397   1_545 A
C52    H70     1.089   .     S
C52    O59     1.401   1_556 S
C52    C66     1.332   1_556 D
H53    C61     1.083   .     S
H54    C62     1.079   .     S
H55    C64     1.084   .     S
H56    C65     1.083   .     S
H57    C66     1.084   .     S
O58    C63     1.411   .     S
O58    C66     1.408   1_556 S
O59    C52     1.401   1_554 S
C60    C61     1.400   .     A
C60    C65     1.403   1_554 A
C60    C16     1.472   1_565 S
C61    C62     1.395   .     A
C62    C63     1.412   1_554 A
C63    C64     1.402   .     A
C63    C62     1.412   1_556 A
C64    C65     1.400   .     A
C65    C60     1.403   1_556 A
C66    C52     1.332   1_554 D
C66    O58     1.408   1_554 S
C72    C73     1.401   .     A
C72    C77     1.403   1_645 A
C72    C18     1.479   1_645 S
C73    C74     1.400   .     A
C73    H95     1.079   .     S
C74    H93     1.080   .     S
C74    C75     1.411   1_645 A
C75    C76     1.394   .     A
C75    O85     1.405   .     S
C75    C74     1.411   1_465 A
C76    C77     1.397   .     A
C76    H94     1.083   .     S
C77    H97     1.077   .     S
C77    C72     1.403   1_465 A
C78    O85     1.403   1_545 S
C78    C92     1.332   1_545 D
C78    H96     1.086   1_455 S
H79    C87     1.083   .     S
H80    C88     1.085   .     S
H81    C90     1.083   .     S
H82    C91     1.078   .     S
H83    C92     1.090   .     S
O84    C89     1.407   1_655 S
O84    C92     1.404   1_645 S
O85    C78     1.403   1_565 S
C86    C87     1.402   .     A
C86    C91     1.401   1_465 A
C86    C12     1.477   1_465 S
C87    C88     1.398   .     A
C88    C89     1.405   1_565 A
C89    O84     1.407   1_455 S
C89    C88     1.405   1_545 A
C89    C90     1.397   1_455 A
C90    C91     1.401   .     A
C90    C89     1.397   1_655 A
C91    C86     1.401   1_645 A
C92    C78     1.332   1_565 D
C92    O84     1.404   1_465 S
H96    C78     1.086   1_655 S
