data_pcu+N106+E1
_audit_creation_date              2023-11-17
_audit_creation_method            'Materials Studio'
_symmetry_space_group_name_H-M    'P1'
_symmetry_Int_Tables_number       1
_symmetry_cell_setting            triclinic
loop_
_symmetry_equiv_pos_as_xyz
  x,y,z
_cell_length_a                    22.9208
_cell_length_b                    19.9958
_cell_length_c                    18.4706
_cell_angle_alpha                 75.5678
_cell_angle_beta                  59.1905
_cell_angle_gamma                 85.2296
loop_
_atom_site_label
_atom_site_type_symbol
_atom_site_fract_x
_atom_site_fract_y
_atom_site_fract_z
_atom_site_U_iso_or_equiv
_atom_site_adp_type
_atom_site_occupancy
Y0     Y     0.92245   0.00736   0.01717   0.00000  Uiso   1.00
Y1     Y     0.07475   0.99915   0.98159   0.00000  Uiso   1.00
O2     O     0.95253   0.11972  -0.01396   0.00000  Uiso   1.00
O3     O     1.02671   0.04618   0.90198   0.00000  Uiso   1.00
C4     C     0.19075   0.99974   0.98555   0.00000  Uiso   1.00
O5     O     0.10408   0.97476   0.85375   0.00000  Uiso   1.00
O6     O     0.80967  -0.01649   0.08109   0.00000  Uiso   1.00
O7     O     0.86335   0.03015   0.94752   0.00000  Uiso   1.00
O8     O     0.04252   0.10584   1.00545   0.00000  Uiso   1.00
O9     O    -0.02950   0.96033   0.09677   0.00000  Uiso   1.00
O10    O     0.89305   0.03168   0.14506   0.00000  Uiso   1.00
O11    O     0.95471   0.90068  -0.00675   0.00000  Uiso   1.00
C12    C    -0.00251   0.14368   0.99613   0.00000  Uiso   1.00
O13    O     0.04462   0.88678   1.01283   0.00000  Uiso   1.00
C14    C     0.06191   1.00795   0.84141   0.00000  Uiso   1.00
O15    O     0.18758   1.02283   0.91761   0.00000  Uiso   1.00
O16    O     0.13381   0.97650   0.05128   0.00000  Uiso   1.00
C17    C     0.80645   0.00675   0.01321   0.00000  Uiso   1.00
C18    C     0.99967   0.86282   0.00271   0.00000  Uiso   1.00
C19    C     0.93526  -0.00148   0.15738   0.00000  Uiso   1.00
C20    C    -0.00120   0.64774   1.00117   0.00000  Uiso   1.00
C21    C     0.04347   0.67453   0.01920   0.00000  Uiso   1.00
C22    C     0.04379   0.74428   0.01970   0.00000  Uiso   1.00
C23    C    -0.00072   0.78883   1.00240   0.00000  Uiso   1.00
C24    C    -0.04543   0.76201   0.98442   0.00000  Uiso   1.00
C25    C    -0.04561   0.69230   0.98372   0.00000  Uiso   1.00
C26    C    -0.00142   0.57365   1.00043   0.00000  Uiso   1.00
C27    C    -0.00782   0.55380   0.93686   0.00000  Uiso   1.00
C28    C    -0.00803   0.48410   0.93616   0.00000  Uiso   1.00
C29    C    -0.00184   0.43267   0.99902   0.00000  Uiso   1.00
C30    C     0.00461   0.45248   0.06255   0.00000  Uiso   1.00
C31    C     0.00475   0.52218   0.06331   0.00000  Uiso   1.00
C32    C    -0.00199   0.35863   0.99821   0.00000  Uiso   1.00
C33    C     0.04341   0.31447   0.01386   0.00000  Uiso   1.00
C34    C     0.04338   0.24480   0.01293   0.00000  Uiso   1.00
C35    C    -0.00221   0.21765   0.99658   0.00000  Uiso   1.00
C36    C    -0.04772   0.26185   0.98111   0.00000  Uiso   1.00
C37    C    -0.04750   0.33158   0.98175   0.00000  Uiso   1.00
H38    H     0.07890   0.64172   0.03179   0.00000  Uiso   1.00
H39    H     0.07898   0.76324   0.03362   0.00000  Uiso   1.00
H40    H     0.91969   0.79489   0.97069   0.00000  Uiso   1.00
H41    H    -0.08119   0.67305   0.97063   0.00000  Uiso   1.00
H42    H    -0.01156   0.59231   0.88672   0.00000  Uiso   1.00
H43    H    -0.01199   0.47050   0.88558   0.00000  Uiso   1.00
H44    H     0.00842   0.41393   0.11261   0.00000  Uiso   1.00
H45    H     0.00867   0.53572   0.11395   0.00000  Uiso   1.00
H46    H     0.07962   0.33402   0.02573   0.00000  Uiso   1.00
H47    H     0.07911   0.21222   0.02513   0.00000  Uiso   1.00
H48    H     0.91637   0.24263   0.96851   0.00000  Uiso   1.00
H49    H    -0.08366   0.36416   0.97055   0.00000  Uiso   1.00
C50    C     0.37463   0.00170   0.99378   0.00000  Uiso   1.00
C51    C     0.31275  -0.02510   0.06955   0.00000  Uiso   1.00
C52    C     0.25301  -0.02574   0.06679   0.00000  Uiso   1.00
C53    C     0.25395   0.00026   0.98820   0.00000  Uiso   1.00
C54    C     0.31566   1.02697   0.91241   0.00000  Uiso   1.00
C55    C     0.37541   0.02773   0.91517   0.00000  Uiso   1.00
C56    C     0.43810   0.00251   0.99673   0.00000  Uiso   1.00
C57    C     0.48470   0.06005   0.94973   0.00000  Uiso   1.00
C58    C     0.54445   0.06082   0.95246   0.00000  Uiso   1.00
C59    C     0.55890   0.00409   1.00239   0.00000  Uiso   1.00
C60    C     0.51227  -0.05344   0.04944   0.00000  Uiso   1.00
C61    C     0.45255  -0.05421   0.04665   0.00000  Uiso   1.00
C62    C     0.62243   0.00488   1.00525   0.00000  Uiso   1.00
C63    C     0.62178  -0.02146   0.08372   0.00000  Uiso   1.00
C64    C     0.68158  -0.02073   0.08639   0.00000  Uiso   1.00
C65    C     0.74321   0.00624   1.01063   0.00000  Uiso   1.00
C66    C     0.74404   1.03255   0.93217   0.00000  Uiso   1.00
C67    C     0.68424   0.03192   0.92951   0.00000  Uiso   1.00
H68    H     0.31035  -0.04468   0.13126   0.00000  Uiso   1.00
H69    H     0.20599  -0.04637   0.12626   0.00000  Uiso   1.00
H70    H     0.31776   1.04719   0.85094   0.00000  Uiso   1.00
H71    H     0.42244   1.04789   0.85553   0.00000  Uiso   1.00
H72    H     0.47448   0.10497   0.91177   0.00000  Uiso   1.00
H73    H     0.57888   0.10631   0.91651   0.00000  Uiso   1.00
H74    H     0.52248  -0.09837   0.08738   0.00000  Uiso   1.00
H75    H     0.41815  -0.09972   0.08250   0.00000  Uiso   1.00
H76    H     0.57482  -0.04182   0.14336   0.00000  Uiso   1.00
H77    H     0.67958  -0.04118   0.14776   0.00000  Uiso   1.00
H78    H     0.79099   1.05339   0.87273   0.00000  Uiso   1.00
H79    H     0.68656   1.05174   0.86787   0.00000  Uiso   1.00
C80    C     0.97119   0.00011   0.36343   0.00000  Uiso   1.00
C81    C     0.00463   0.95454   0.30907   0.00000  Uiso   1.00
C82    C    -0.00783   0.95355   0.24278   0.00000  Uiso   1.00
C83    C     0.94621  -0.00185   0.22939   0.00000  Uiso   1.00
C84    C     0.91234   0.04337   0.28386   0.00000  Uiso   1.00
C85    C     0.92471   0.04435   0.35027   0.00000  Uiso   1.00
C86    C     0.98500   0.00170   0.43329   0.00000  Uiso   1.00
C87    C     0.99096   0.06493   0.44986   0.00000  Uiso   1.00
C88    C     1.00436   0.06649   0.51522   0.00000  Uiso   1.00
C89    C     1.01207   0.00486   0.56555   0.00000  Uiso   1.00
C90    C     1.00604   0.94161   0.54903   0.00000  Uiso   1.00
C91    C     0.99271   0.94006   0.48361   0.00000  Uiso   1.00
C92    C     1.02596   0.00646   0.63534   0.00000  Uiso   1.00
C93    C     0.07213   0.96190   0.64883   0.00000  Uiso   1.00
C94    C     0.08451   0.96285   0.71523   0.00000  Uiso   1.00
C95    C     1.05094   0.00834   0.76940   0.00000  Uiso   1.00
C96    C     1.00524   0.05320   0.75576   0.00000  Uiso   1.00
C97    C     0.99278   0.05225   0.68946   0.00000  Uiso   1.00
H98    H     0.04132   0.92043   0.31684   0.00000  Uiso   1.00
H99    H     0.01870   0.91802   0.20178   0.00000  Uiso   1.00
H100   H     0.87662   0.07828   0.27477   0.00000  Uiso   1.00
H101   H     0.89747   0.07936   0.39178   0.00000  Uiso   1.00
H102   H     0.98635   0.11335   0.41131   0.00000  Uiso   1.00
H103   H     1.00970   0.11609   0.52549   0.00000  Uiso   1.00
H104   H     0.01055   0.89317   0.58765   0.00000  Uiso   1.00
H105   H    -0.01262   0.89047   0.47330   0.00000  Uiso   1.00
H106   H     0.09914   0.92668   0.60755   0.00000  Uiso   1.00
H107   H     0.11996   0.92769   0.72459   0.00000  Uiso   1.00
H108   H     0.97888   0.08887   0.79660   0.00000  Uiso   1.00
H109   H     0.95630   0.08659   0.68150   0.00000  Uiso   1.00
loop_
_geom_bond_atom_site_label_1
_geom_bond_atom_site_label_2
_geom_bond_distance
_geom_bond_site_symmetry_2
_ccdc_geom_bond_type
Y0     O2      2.250   .     S
Y0     O6      2.259   .     S
Y0     O10     2.271   .     S
Y0     O3      2.262   1_554 S
Y0     O7      2.256   1_554 S
Y0     O9      2.249   1_645 S
Y0     O11     2.273   1_545 S
Y1     O5      2.271   .     S
Y1     O13     2.250   .     S
Y1     O15     2.259   .     S
Y1     O3      2.249   1_465 S
Y1     O8      2.273   1_565 S
Y1     O9      2.262   1_556 S
Y1     O16     2.255   1_556 S
O2     C12     1.284   1_654 A
O3     Y0      2.262   1_556 S
O3     Y1      2.249   1_645 S
O3     C14     1.373   1_645 S
C4     O15     1.262   .     A
C4     O16     1.261   1_556 A
C4     C53     1.475   1_565 S
O5     C14     1.213   .     D
O6     C17     1.262   .     A
O7     Y0      2.256   1_556 S
O7     C17     1.261   1_556 A
O8     C12     1.286   .     A
O8     Y1      2.273   1_545 S
O9     Y0      2.249   1_465 S
O9     Y1      2.262   1_554 S
O9     C19     1.373   1_465 S
O10    C19     1.213   .     D
O11    C18     1.286   .     A
O11    Y0      2.273   1_565 S
C12    C35     1.482   .     S
C12    O2      1.284   1_456 A
O13    C18     1.284   1_456 A
C14    O3      1.373   1_465 S
C14    C95     1.473   1_465 S
O16    Y1      2.255   1_554 S
O16    C4      1.261   1_554 A
C17    O7      1.261   1_554 A
C17    C65     1.475   1_554 S
C18    O13     1.284   1_654 A
C18    C23     1.482   1_654 S
C19    C83     1.473   .     S
C19    O9      1.373   1_645 S
C20    C25     1.406   .     A
C20    C26     1.485   .     S
C20    C21     1.406   1_556 A
C21    C22     1.398   .     A
C21    H38     1.083   .     S
C21    C20     1.406   1_554 A
C22    H39     1.083   .     S
C22    C23     1.406   1_554 A
C23    C24     1.406   .     A
C23    C22     1.406   1_556 A
C23    C18     1.482   1_456 S
C24    C25     1.397   .     A
C24    H40     1.083   1_455 S
C25    H41     1.083   .     S
C26    C27     1.406   .     A
C26    C31     1.406   1_556 A
C27    C28     1.397   .     A
C27    H42     1.083   .     S
C28    C29     1.405   .     A
C28    H43     1.083   .     S
C29    C32     1.485   .     S
C29    C30     1.405   1_556 A
C30    C31     1.397   .     A
C30    H44     1.083   .     S
C30    C29     1.405   1_554 A
C31    H45     1.083   .     S
C31    C26     1.406   1_554 A
C32    C37     1.405   .     A
C32    C33     1.405   1_556 A
C33    C34     1.397   .     A
C33    H46     1.083   .     S
C33    C32     1.405   1_554 A
C34    H47     1.083   .     S
C34    C35     1.406   1_554 A
C35    C36     1.406   .     A
C35    C34     1.406   1_556 A
C36    C37     1.398   .     A
C36    H48     1.083   1_455 S
C37    H49     1.083   .     S
H40    C24     1.083   1_655 S
H48    C36     1.083   1_655 S
C50    C55     1.406   .     A
C50    C56     1.485   .     S
C50    C51     1.406   1_556 A
C51    C52     1.397   .     A
C51    H68     1.083   .     S
C51    C50     1.406   1_554 A
C52    H69     1.083   .     S
C52    C53     1.404   1_554 A
C53    C52     1.404   1_556 A
C53    C54     1.404   1_545 A
C53    C4      1.475   1_545 S
C54    H70     1.083   .     S
C54    C53     1.404   1_565 A
C54    C55     1.398   1_565 A
C55    C54     1.398   1_545 A
C55    H71     1.083   1_545 S
C56    C57     1.405   .     A
C56    C61     1.405   1_556 A
C57    C58     1.398   .     A
C57    H72     1.083   .     S
C58    C59     1.406   .     A
C58    H73     1.083   .     S
C59    C62     1.485   .     S
C59    C60     1.406   1_556 A
C60    C61     1.398   .     A
C60    H74     1.083   .     S
C60    C59     1.406   1_554 A
C61    H75     1.083   .     S
C61    C56     1.405   1_554 A
C62    C67     1.406   .     A
C62    C63     1.406   1_556 A
C63    C64     1.398   .     A
C63    H76     1.083   .     S
C63    C62     1.406   1_554 A
C64    H77     1.083   .     S
C64    C65     1.404   1_554 A
C65    C64     1.404   1_556 A
C65    C66     1.404   1_545 A
C65    C17     1.475   1_556 S
C66    H78     1.083   .     S
C66    C65     1.404   1_565 A
C66    C67     1.398   1_565 A
C67    C66     1.398   1_545 A
C67    H79     1.083   1_545 S
H71    C55     1.083   1_565 S
H79    C67     1.083   1_565 S
C80    C85     1.407   .     A
C80    C86     1.485   .     S
C80    C81     1.406   1_645 A
C81    C82     1.397   .     A
C81    H98     1.083   .     S
C81    C80     1.406   1_465 A
C82    H99     1.083   .     S
C82    C83     1.402   1_465 A
C83    C84     1.403   .     A
C83    C82     1.402   1_645 A
C84    C85     1.398   .     A
C84    H100    1.083   .     S
C85    H101    1.083   .     S
C86    C87     1.406   .     A
C86    C91     1.405   1_545 A
C87    C88     1.397   .     A
C87    H102    1.083   .     S
C88    C89     1.406   .     A
C88    H103    1.083   .     S
C89    C92     1.485   .     S
C89    C90     1.406   1_545 A
C90    C91     1.397   .     A
C90    C89     1.406   1_565 A
C90    H104    1.083   1_655 S
C91    C86     1.405   1_565 A
C91    H105    1.083   1_655 S
C92    C97     1.406   .     A
C92    C93     1.407   1_645 A
C93    C94     1.398   .     A
C93    H106    1.083   .     S
C93    C92     1.407   1_465 A
C94    H107    1.083   .     S
C94    C95     1.403   1_465 A
C95    C96     1.402   .     A
C95    C94     1.403   1_645 A
C95    C14     1.473   1_645 S
C96    C97     1.397   .     A
C96    H108    1.083   .     S
C97    H109    1.083   .     S
H104   C90     1.083   1_455 S
H105   C91     1.083   1_455 S
