data_pcu+N155+E1
_audit_creation_date              2023-11-17
_audit_creation_method            'Materials Studio'
_symmetry_space_group_name_H-M    'P1'
_symmetry_Int_Tables_number       1
_symmetry_cell_setting            triclinic
loop_
_symmetry_equiv_pos_as_xyz
  x,y,z
_cell_length_a                    19.2936
_cell_length_b                    20.0385
_cell_length_c                    22.4350
_cell_angle_alpha                 97.6470
_cell_angle_beta                  92.3641
_cell_angle_gamma                 82.4635
loop_
_atom_site_label
_atom_site_type_symbol
_atom_site_fract_x
_atom_site_fract_y
_atom_site_fract_z
_atom_site_U_iso_or_equiv
_atom_site_adp_type
_atom_site_occupancy
C0     C     0.00132   0.01726   0.18305   0.00000  Uiso   1.00
Ho1    Ho   -0.00090   0.00686   0.06732   0.00000  Uiso   1.00
C2     C     0.99998   0.97979   0.81981   0.00000  Uiso   1.00
Ho3    Ho    1.00134   0.98958   0.93578   0.00000  Uiso   1.00
O4     O     0.05720   0.01534   0.15265   0.00000  Uiso   1.00
O5     O     0.94476   0.01588   0.15190   0.00000  Uiso   1.00
O6     O     0.10848   0.00933   0.09993   0.00000  Uiso   1.00
O7     O     0.08149   0.99730   1.00506   0.00000  Uiso   1.00
C8     C     0.13328   0.00228   1.04974   0.00000  Uiso   1.00
C9     C     0.86745   0.99342  -0.04711   0.00000  Uiso   1.00
O10    O     0.01186   0.89480   0.05099   0.00000  Uiso   1.00
O11    O     1.01286   0.88043   0.94764   0.00000  Uiso   1.00
O12    O     0.94394   0.98140   0.84985   0.00000  Uiso   1.00
O13    O     0.05618   0.98095   0.85132   0.00000  Uiso   1.00
O14    O     0.89229   0.98682   0.90258   0.00000  Uiso   1.00
O15    O     0.91906  -0.00131  -0.00223   0.00000  Uiso   1.00
O16    O     0.98801   0.10161   0.95183   0.00000  Uiso   1.00
O17    O    -0.01183   0.11572   0.05523   0.00000  Uiso   1.00
C18    C     0.98643   0.13941   1.00389   0.00000  Uiso   1.00
C19    C     0.01354   0.85698  -0.00110   0.00000  Uiso   1.00
C20    C     1.00783   0.64175  -0.00138   0.00000  Uiso   1.00
C21    C     1.00647   0.66972   0.94406   0.00000  Uiso   1.00
C22    C     1.01007   0.73923   0.94380   0.00000  Uiso   1.00
C23    C     1.01567   0.78264  -0.00173   0.00000  Uiso   1.00
C24    C     0.01891   0.75436   0.05264   0.00000  Uiso   1.00
C25    C     0.01416   0.68517   0.05268   0.00000  Uiso   1.00
C26    C     1.00273   0.56822  -0.00073   0.00000  Uiso   1.00
C27    C     1.03913   0.53279   0.04358   0.00000  Uiso   1.00
C28    C     1.03269   0.46425   0.04599   0.00000  Uiso   1.00
C29    C     0.99030   0.42918   0.00341   0.00000  Uiso   1.00
C30    C     0.95439   0.46432   0.95865   0.00000  Uiso   1.00
C31    C     0.96038   0.53304   0.95663   0.00000  Uiso   1.00
C32    C     0.98606   0.35550   0.00397   0.00000  Uiso   1.00
C33    C     0.98252   0.31171   0.94979   0.00000  Uiso   1.00
C34    C     0.98036   0.24215   0.95001   0.00000  Uiso   1.00
C35    C     0.98318   0.21404   0.00442   0.00000  Uiso   1.00
C36    C    -0.01435   0.25795   0.05891   0.00000  Uiso   1.00
C37    C    -0.01291   0.32776   0.05864   0.00000  Uiso   1.00
H38    H     1.00343   0.63777   0.90157   0.00000  Uiso   1.00
H39    H     1.00835   0.75871   0.90087   0.00000  Uiso   1.00
H40    H     0.02415   0.78596   0.09547   0.00000  Uiso   1.00
H41    H     0.01416   0.66585   0.09545   0.00000  Uiso   1.00
H42    H     0.07329   0.55758   0.07630   0.00000  Uiso   1.00
H43    H     0.06219   0.43821   0.08036   0.00000  Uiso   1.00
H44    H     0.92052   0.43905   0.92564   0.00000  Uiso   1.00
H45    H     0.93071   0.55905   0.92264   0.00000  Uiso   1.00
H46    H     0.98274   0.33093   0.90674   0.00000  Uiso   1.00
H47    H     0.97775   0.20999   0.90721   0.00000  Uiso   1.00
H48    H    -0.01298   0.23818   0.10161   0.00000  Uiso   1.00
H49    H    -0.01157   0.36032   0.10105   0.00000  Uiso   1.00
C50    C     0.35199   0.99902   1.01992   0.00000  Uiso   1.00
C51    C     0.30573   0.98181   0.97165   0.00000  Uiso   1.00
C52    C     0.23428   0.98324   0.98104   0.00000  Uiso   1.00
C53    C     0.20786   1.00183   1.03901   0.00000  Uiso   1.00
C54    C     0.25342   0.01965   0.08711   0.00000  Uiso   1.00
C55    C     0.32475   0.01815   0.07780   0.00000  Uiso   1.00
C56    C     0.42787   0.99713   1.00977   0.00000  Uiso   1.00
C57    C     0.47802  -0.02565   0.05261   0.00000  Uiso   1.00
C58    C     0.54953  -0.02614   0.04436   0.00000  Uiso   1.00
C59    C     0.57298   0.99471   0.99190   0.00000  Uiso   1.00
C60    C     0.52301   1.01634   0.94863   0.00000  Uiso   1.00
C61    C     0.45144   1.01761   0.95709   0.00000  Uiso   1.00
C62    C     0.64891   0.99330   0.98191   0.00000  Uiso   1.00
C63    C     0.67664   0.97302   0.92431   0.00000  Uiso   1.00
C64    C     0.74776   0.97332   0.91488   0.00000  Uiso   1.00
C65    C     0.79257   0.99344   0.96293   0.00000  Uiso   1.00
C66    C     0.76568   0.01294   0.02061   0.00000  Uiso   1.00
C67    C     0.69440   0.01279   0.03004   0.00000  Uiso   1.00
H68    H     0.32510   0.96583   0.92680   0.00000  Uiso   1.00
H69    H     0.19991   0.96877   0.94331   0.00000  Uiso   1.00
H70    H     0.23345   0.03491   0.13219   0.00000  Uiso   1.00
H71    H     0.35873   0.03252   0.11592   0.00000  Uiso   1.00
H72    H     0.46150  -0.04328   0.09271   0.00000  Uiso   1.00
H73    H     0.58675  -0.04411   0.07852   0.00000  Uiso   1.00
H74    H     0.53947   1.03468   0.90874   0.00000  Uiso   1.00
H75    H     0.41431   1.03618   0.92315   0.00000  Uiso   1.00
H76    H     0.64342   0.95657   0.88646   0.00000  Uiso   1.00
H77    H     0.76828   0.95693   0.87029   0.00000  Uiso   1.00
H78    H     0.79950   0.02878   0.05830   0.00000  Uiso   1.00
H79    H     0.67445   0.02933   0.07484   0.00000  Uiso   1.00
C80    C     0.00515   0.00840   0.37334   0.00000  Uiso   1.00
C81    C     0.96663   0.06412   0.34878   0.00000  Uiso   1.00
C82    C     0.96605   0.06813   0.28687   0.00000  Uiso   1.00
C83    C     0.00400   0.01649   0.24814   0.00000  Uiso   1.00
C84    C     0.04341   0.96189   0.27208   0.00000  Uiso   1.00
C85    C     0.04358   0.95739   0.33376   0.00000  Uiso   1.00
C86    C     0.00510   0.00389   0.43913   0.00000  Uiso   1.00
C87    C     0.00835   0.94037   0.46020   0.00000  Uiso   1.00
C88    C     0.00823   0.93567   0.52195   0.00000  Uiso   1.00
C89    C     0.00446  -0.00561   0.56432   0.00000  Uiso   1.00
C90    C     0.00128   0.05797   0.54321   0.00000  Uiso   1.00
C91    C     0.00174   0.06269   0.48156   0.00000  Uiso   1.00
C92    C     0.00263  -0.01024   0.63017   0.00000  Uiso   1.00
C93    C     0.96175   0.03978   0.66875   0.00000  Uiso   1.00
C94    C     0.95932   0.03491   0.73030   0.00000  Uiso   1.00
C95    C    -0.00118  -0.01947   0.75484   0.00000  Uiso   1.00
C96    C     0.03918   0.92994   0.71707   0.00000  Uiso   1.00
C97    C     0.04098   0.93456   0.65531   0.00000  Uiso   1.00
H98    H     0.93578   0.10402   0.37704   0.00000  Uiso   1.00
H99    H     0.93573   0.11116   0.26881   0.00000  Uiso   1.00
H100   H     0.07216   0.92158   0.24220   0.00000  Uiso   1.00
H101   H     0.07465   0.91431   0.35016   0.00000  Uiso   1.00
H102   H     0.00958   0.89395   0.42913   0.00000  Uiso   1.00
H103   H     0.00995   0.88589   0.53635   0.00000  Uiso   1.00
H104   H     0.99989   0.10421   0.57457   0.00000  Uiso   1.00
H105   H     1.00019   0.11265   0.46742   0.00000  Uiso   1.00
H106   H     0.93038   0.08222   0.65141   0.00000  Uiso   1.00
H107   H     0.92841   0.07453   0.75938   0.00000  Uiso   1.00
H108   H     0.06979   0.88751   0.73544   0.00000  Uiso   1.00
H109   H     0.07368   0.89545   0.62762   0.00000  Uiso   1.00
loop_
_geom_bond_atom_site_label_1
_geom_bond_atom_site_label_2
_geom_bond_distance
_geom_bond_site_symmetry_2
_ccdc_geom_bond_type
C0     O4      1.293   .     A
C0     C83     1.461   .     S
C0     O5      1.273   1_455 A
Ho1    O4      2.176   .     S
Ho1    O6      2.209   .     S
Ho1    O17     2.215   .     S
Ho1    O5      2.181   1_455 S
Ho1    O7      2.132   1_544 S
Ho1    O10     2.209   1_545 S
Ho1    O15     2.155   1_455 S
C2     O12     1.292   .     A
C2     O13     1.271   1_655 A
C2     C95     1.459   1_665 S
Ho3    O11     2.220   .     S
Ho3    O12     2.181   .     S
Ho3    O14     2.208   .     S
Ho3    O7      2.152   1_655 S
Ho3    O13     2.184   1_655 S
Ho3    O15     2.127   1_566 S
Ho3    O16     2.208   1_565 S
O5     C0      1.273   1_655 A
O5     Ho1     2.181   1_655 S
O6     C8      1.225   1_554 D
O7     Ho1     2.132   1_566 S
O7     Ho3     2.152   1_455 S
O7     C8      1.389   1_565 S
C8     O6      1.225   1_556 D
C8     O7      1.389   1_545 S
C8     C53     1.467   1_545 S
C9     O14     1.229   1_554 D
C9     O15     1.390   1_565 S
C9     C65     1.471   1_554 S
O10    C19     1.305   .     A
O10    Ho1     2.209   1_565 S
O11    C19     1.298   1_656 A
O13    C2      1.271   1_455 A
O13    Ho3     2.184   1_455 S
O14    C9      1.229   1_556 D
O15    Ho1     2.155   1_655 S
O15    Ho3     2.127   1_544 S
O15    C9      1.390   1_545 S
O16    C18     1.304   .     A
O16    Ho3     2.208   1_545 S
O17    C18     1.300   1_454 A
C18    O17     1.300   1_656 A
C18    C35     1.487   1_556 S
C19    O11     1.298   1_454 A
C19    C23     1.483   1_455 S
C20    C26     1.492   .     S
C20    C21     1.411   1_554 A
C20    C25     1.406   1_655 A
C21    C22     1.404   .     A
C21    H38     1.079   .     S
C21    C20     1.411   1_556 A
C22    H39     1.084   .     S
C22    C23     1.412   1_556 A
C23    C22     1.412   1_554 A
C23    C24     1.407   1_655 A
C23    C19     1.483   1_655 S
C24    C25     1.402   .     A
C24    H40     1.087   .     S
C24    C23     1.407   1_455 A
C25    H41     1.082   .     S
C25    C20     1.406   1_455 A
C26    C27     1.409   .     A
C26    C31     1.410   1_554 A
C27    C28     1.403   .     A
C27    H42     1.081   1_655 S
C28    C29     1.408   .     A
C28    H43     1.088   1_655 S
C29    C32     1.491   .     S
C29    C30     1.410   1_554 A
C30    C31     1.404   .     A
C30    H44     1.086   .     S
C30    C29     1.410   1_556 A
C31    H45     1.083   .     S
C31    C26     1.410   1_556 A
C32    C33     1.406   1_554 A
C32    C37     1.411   1_655 A
C33    C34     1.401   .     A
C33    H46     1.087   .     S
C33    C32     1.406   1_556 A
C34    H47     1.086   .     S
C34    C35     1.407   1_556 A
C35    C34     1.407   1_554 A
C35    C36     1.411   1_655 A
C35    C18     1.487   1_554 S
C36    C37     1.404   .     A
C36    H48     1.082   .     S
C36    C35     1.411   1_455 A
C37    H49     1.081   .     S
C37    C32     1.411   1_455 A
H42    C27     1.081   1_455 S
H43    C28     1.088   1_455 S
C50    C51     1.411   .     A
C50    C56     1.486   .     S
C50    C55     1.407   1_566 A
C51    C52     1.399   .     A
C51    H68     1.081   .     S
C52    C53     1.402   .     A
C52    H69     1.086   .     S
C53    C54     1.402   1_566 A
C53    C8      1.467   1_565 S
C54    C55     1.396   .     A
C54    H70     1.088   .     S
C54    C53     1.402   1_544 A
C55    H71     1.087   .     S
C55    C50     1.407   1_544 A
C56    C61     1.412   .     A
C56    C57     1.411   1_566 A
C57    C58     1.398   .     A
C57    H72     1.083   .     S
C57    C56     1.411   1_544 A
C58    H73     1.092   .     S
C58    C59     1.410   1_544 A
C59    C60     1.409   .     A
C59    C62     1.487   .     S
C59    C58     1.410   1_566 A
C60    C61     1.398   .     A
C60    H74     1.085   .     S
C61    H75     1.092   .     S
C62    C63     1.408   .     A
C62    C67     1.410   1_566 A
C63    C64     1.398   .     A
C63    H76     1.085   .     S
C64    C65     1.404   .     A
C64    H77     1.085   .     S
C65    C66     1.401   1_566 A
C65    C9      1.471   1_556 S
C66    C67     1.400   .     A
C66    H78     1.086   .     S
C66    C65     1.401   1_544 A
C67    H79     1.086   .     S
C67    C62     1.410   1_544 A
C80    C86     1.491   .     S
C80    C81     1.420   1_455 A
C80    C85     1.413   1_545 A
C81    C82     1.401   .     A
C81    H98     1.080   .     S
C81    C80     1.420   1_655 A
C82    H99     1.091   .     S
C82    C83     1.406   1_655 A
C83    C82     1.406   1_455 A
C83    C84     1.403   1_545 A
C84    C85     1.398   .     A
C84    H100    1.086   .     S
C84    C83     1.403   1_565 A
C85    H101    1.082   .     S
C85    C80     1.413   1_565 A
C86    C91     1.409   .     A
C86    C87     1.409   1_545 A
C87    C88     1.401   .     A
C87    H102    1.084   .     S
C87    C86     1.409   1_565 A
C88    H103    1.085   .     S
C88    C89     1.407   1_565 A
C89    C90     1.410   .     A
C89    C92     1.495   .     S
C89    C88     1.407   1_545 A
C90    C91     1.399   .     A
C90    H104    1.084   1_455 S
C91    H105    1.086   1_455 S
C92    C93     1.412   1_455 A
C92    C97     1.416   1_545 A
C93    C94     1.400   .     A
C93    H106    1.084   .     S
C93    C92     1.412   1_655 A
C94    H107    1.087   .     S
C94    C95     1.407   1_655 A
C95    C94     1.407   1_455 A
C95    C96     1.404   1_545 A
C95    C2      1.459   1_445 S
C96    C97     1.403   .     A
C96    H108    1.088   .     S
C96    C95     1.404   1_565 A
C97    H109    1.082   .     S
C97    C92     1.416   1_565 A
H104   C90     1.084   1_655 S
H105   C91     1.086   1_655 S
