data_pcu+N505+E70
_audit_creation_date              2023-11-17
_audit_creation_method            'Materials Studio'
_symmetry_space_group_name_H-M    'P1'
_symmetry_Int_Tables_number       1
_symmetry_cell_setting            triclinic
loop_
_symmetry_equiv_pos_as_xyz
  x,y,z
_cell_length_a                    8.5651
_cell_length_b                    13.2874
_cell_length_c                    11.9105
_cell_angle_alpha                 100.5160
_cell_angle_beta                  42.2901
_cell_angle_gamma                 80.1838
loop_
_atom_site_label
_atom_site_type_symbol
_atom_site_fract_x
_atom_site_fract_y
_atom_site_fract_z
_atom_site_U_iso_or_equiv
_atom_site_adp_type
_atom_site_occupancy
Yb0    Yb    0.96261   0.17392  -0.06924   0.00000  Uiso   1.00
Yb1    Yb   -0.09644   0.91393   1.16423   0.00000  Uiso   1.00
C2     C    -0.01046   0.72518   1.00252   0.00000  Uiso   1.00
O3     O     0.15064   0.00674   0.73192   0.00000  Uiso   1.00
O4     O     0.84825   0.14935   0.82462   0.00000  Uiso   1.00
O5     O     0.66455   0.13885   0.16458   0.00000  Uiso   1.00
O6     O     0.57286   1.00202   1.24653   0.00000  Uiso   1.00
O7     O     1.19126   0.23935   0.74545   0.00000  Uiso   1.00
O8     O     0.81881   0.35500   0.04884   0.00000  Uiso   1.00
O9     O     0.78013   0.99069   0.40534   0.00000  Uiso   1.00
O10    O     0.16985   0.84469   0.13898   0.00000  Uiso   1.00
C11    C     1.02156   0.04211   0.71532   0.00000  Uiso   1.00
O12    O     0.17969   0.15374  -0.03125   0.00000  Uiso   1.00
O13    O     0.03221   1.03600   1.07038   0.00000  Uiso   1.00
O14    O    -0.15594   0.76670   0.17614   0.00000  Uiso   1.00
C15    C     0.58803   1.06261   0.16977   0.00000  Uiso   1.00
O16    O     0.08560   0.78726   0.91956   0.00000  Uiso   1.00
C17    C     1.02273   0.34288  -0.11769   0.00000  Uiso   1.00
C18    C     0.00255   0.91594   0.31219   0.00000  Uiso   1.00
C19    C     0.18585   0.07764   1.01793   0.00000  Uiso   1.00
N20    N     0.96421   0.54128  -0.02332   0.00000  Uiso   1.00
H21    H     0.30065   0.60964   0.62888   0.00000  Uiso   1.00
C22    C     0.04922   0.61198   0.90054   0.00000  Uiso   1.00
C23    C     0.21217   0.56547   0.71342   0.00000  Uiso   1.00
C24    C     0.06583   0.44053   0.84560   0.00000  Uiso   1.00
S25    S     0.26855   0.42882   0.62536   0.00000  Uiso   1.00
N26    N     0.38340   1.09583   0.09627   0.00000  Uiso   1.00
H27    H     0.56119  -0.14637   0.81087   0.00000  Uiso   1.00
C28    C     0.37571   0.03267   0.99961   0.00000  Uiso   1.00
C29    C     0.54433  -0.08308   0.89516   0.00000  Uiso   1.00
C30    C     0.55854   0.02568   1.06492   0.00000  Uiso   1.00
S31    S     0.70867  -0.11872   0.92386   0.00000  Uiso   1.00
N32    N     0.96959  -0.00242   0.53671   0.00000  Uiso   1.00
H33    H     0.33598   0.72378   0.22000   0.00000  Uiso   1.00
C34    C     0.06557   0.90742   0.39663   0.00000  Uiso   1.00
C35    C     0.23855   0.80502   0.33281   0.00000  Uiso   1.00
C36    C     0.07264   0.96250   0.57783   0.00000  Uiso   1.00
S37    S     0.28330   0.81840   0.45052   0.00000  Uiso   1.00
loop_
_geom_bond_atom_site_label_1
_geom_bond_atom_site_label_2
_geom_bond_distance
_geom_bond_site_symmetry_2
_ccdc_geom_bond_type
Yb0    O5      2.203   .     S
Yb0    O8      2.116   .     S
Yb0    O3      2.087   1_654 S
Yb0    O4      2.111   1_554 S
Yb0    O7      2.085   1_554 S
Yb0    O12     2.203   1_655 S
Yb1    O13     2.131   .     S
Yb1    O16     2.085   .     S
Yb1    O6      2.167   1_455 S
Yb1    O9      2.116   1_456 S
Yb1    O10     2.075   1_556 S
Yb1    O14     2.108   1_556 S
C2     O16     1.288   .     A
C2     C22     1.467   .     S
C2     O14     1.292   1_556 A
O3     Yb0     2.087   1_456 S
O3     C11     1.289   1_455 A
O4     C11     1.293   .     A
O4     Yb0     2.111   1_556 S
O5     C15     1.284   1_545 A
O6     Yb1     2.167   1_655 S
O6     C15     1.277   1_556 A
O7     Yb0     2.085   1_556 S
O7     C17     1.287   1_556 A
O8     C17     1.293   .     A
O9     Yb1     2.116   1_654 S
O9     C18     1.293   1_655 A
O10    C18     1.287   .     A
O10    Yb1     2.075   1_554 S
C11    O3      1.289   1_655 A
C11    C36     1.464   1_645 S
O12    Yb0     2.203   1_455 S
O12    C19     1.270   1_554 A
O13    C19     1.260   1_565 A
O14    Yb1     2.108   1_554 S
O14    C2      1.292   1_554 A
C15    O5      1.284   1_565 A
C15    O6      1.277   1_554 A
C15    C30     1.466   1_564 S
C17    O7      1.287   1_554 A
C17    C24     1.464   1_654 S
C18    C34     1.463   .     S
C18    O9      1.293   1_455 A
C19    C28     1.465   .     S
C19    O12     1.270   1_556 A
C19    O13     1.260   1_545 A
N20    C22     1.342   1_654 A
N20    C24     1.348   1_654 A
H21    C23     1.082   .     S
C22    C23     1.378   .     A
C22    N20     1.342   1_456 A
C23    S25     1.699   .     A
C24    S25     1.715   .     A
C24    N20     1.348   1_456 A
C24    C17     1.464   1_456 S
N26    C28     1.346   1_564 A
N26    C30     1.351   1_564 A
H27    C29     1.083   .     S
C28    C29     1.373   .     A
C28    N26     1.346   1_546 A
C29    S31     1.693   .     A
C30    S31     1.716   .     A
C30    N26     1.351   1_546 A
C30    C15     1.466   1_546 S
N32    C34     1.342   1_645 A
N32    C36     1.349   1_645 A
H33    C35     1.082   .     S
C34    C35     1.376   .     A
C34    N32     1.342   1_465 A
C35    S37     1.694   .     A
C36    S37     1.713   .     A
C36    N32     1.349   1_465 A
C36    C11     1.464   1_465 S
