data_pcu+N139+E14
_audit_creation_date              2023-11-17
_audit_creation_method            'Materials Studio'
_symmetry_space_group_name_H-M    'P1'
_symmetry_Int_Tables_number       1
_symmetry_cell_setting            triclinic
loop_
_symmetry_equiv_pos_as_xyz
  x,y,z
_cell_length_a                    12.9079
_cell_length_b                    9.3410
_cell_length_c                    15.1757
_cell_angle_alpha                 93.0323
_cell_angle_beta                  83.0061
_cell_angle_gamma                 37.7845
loop_
_atom_site_label
_atom_site_type_symbol
_atom_site_fract_x
_atom_site_fract_y
_atom_site_fract_z
_atom_site_U_iso_or_equiv
_atom_site_adp_type
_atom_site_occupancy
C0     C     0.04884  -0.00789   0.30825   0.00000  Uiso   1.00
Sm1    Sm    0.90647   0.01735   0.86717   0.00000  Uiso   1.00
Sm2    Sm    0.09371   0.98288   0.13304   0.00000  Uiso   1.00
C3     C     0.92960   0.27766  -0.02425   0.00000  Uiso   1.00
C4     C     0.29486   0.98050   0.07119   0.00000  Uiso   1.00
O5     O     0.08043   0.85462   0.72746   0.00000  Uiso   1.00
O6     O     0.79892   0.16591   0.74810   0.00000  Uiso   1.00
O7     O     0.09242   0.74504   0.10097   0.00000  Uiso   1.00
O8     O     1.08035   0.80124   0.96287   0.00000  Uiso   1.00
O9     O     0.67686   0.17766  -0.03298   0.00000  Uiso   1.00
O10    O     0.83837   0.86169   0.85892   0.00000  Uiso   1.00
O11    O     0.91977   0.14565   0.27276   0.00000  Uiso   1.00
O12    O     0.20132   0.83417   0.25209   0.00000  Uiso   1.00
O13    O     0.90780   0.25514   0.89924   0.00000  Uiso   1.00
O14    O    -0.08024   0.19909   0.03737   0.00000  Uiso   1.00
O15    O     0.32335   0.82251   1.03318   0.00000  Uiso   1.00
O16    O     0.16185   0.13847   0.14128   0.00000  Uiso   1.00
C17    C     0.95138   1.00807   0.69195   0.00000  Uiso   1.00
C18    C     0.07062   0.72253   1.02446   0.00000  Uiso   1.00
C19    C     0.70537   0.01964   0.92901   0.00000  Uiso   1.00
C20    C     1.10970   0.45153   0.92798   0.00000  Uiso   1.00
C21    C     0.03140   0.61318   0.01102   0.00000  Uiso   1.00
C22    C    -0.07669   0.65878   0.08343   0.00000  Uiso   1.00
C23    C    -0.10953   0.54873   0.07220   0.00000  Uiso   1.00
C24    C    -0.03112   0.38692  -0.01081   0.00000  Uiso   1.00
C25    C     1.07687   0.34146   0.91676   0.00000  Uiso   1.00
H26    H     1.19627   0.41043   0.87204   0.00000  Uiso   1.00
H27    H    -0.13722   0.78169   0.14831   0.00000  Uiso   1.00
H28    H    -0.19606   0.58977   0.12815   0.00000  Uiso   1.00
H29    H     1.13735   0.21861   0.85187   0.00000  Uiso   1.00
C30    C     0.52304   0.84421  -0.05122   0.00000  Uiso   1.00
C31    C     0.40255  -0.01342   0.03555   0.00000  Uiso   1.00
C32    C     0.38043   0.14256   1.08658   0.00000  Uiso   1.00
C33    C     0.47715   0.15600   1.05141   0.00000  Uiso   1.00
C34    C     0.59769   0.01356  -0.03534   0.00000  Uiso   1.00
C35    C     0.61969   0.85774  -0.08640   0.00000  Uiso   1.00
H36    H     0.54108   0.72453  -0.09232   0.00000  Uiso   1.00
H37    H     0.28767   0.25515   1.15355   0.00000  Uiso   1.00
H38    H     0.45896   0.27588   1.09248   0.00000  Uiso   1.00
H39    H     0.71245   0.74516  -0.15338   0.00000  Uiso   1.00
C40    C     0.16945  -0.17508   0.44213   0.00000  Uiso   1.00
C41    C     0.02389  -0.00360   0.40639   0.00000  Uiso   1.00
C42    C     0.85434   1.17158   0.46520   0.00000  Uiso   1.00
C43    C     0.83080   1.17521   0.55807   0.00000  Uiso   1.00
C44    C    -0.02364   0.00372   0.59381   0.00000  Uiso   1.00
C45    C     0.14591  -0.17144   0.53500   0.00000  Uiso   1.00
H46    H     0.30165  -0.31217   0.39833   0.00000  Uiso   1.00
H47    H     0.73980   1.30582   0.43945   0.00000  Uiso   1.00
H48    H     0.69860   1.31230   0.60188   0.00000  Uiso   1.00
H49    H     0.26045  -0.30567   0.56076   0.00000  Uiso   1.00
loop_
_geom_bond_atom_site_label_1
_geom_bond_atom_site_label_2
_geom_bond_distance
_geom_bond_site_symmetry_2
_ccdc_geom_bond_type
C0     C41     1.476   .     S
C0     O11     1.283   1_455 A
C0     O12     1.283   1_545 A
Sm1    O6      2.225   .     S
Sm1    O13     2.263   .     S
Sm1    O5      2.225   1_645 S
Sm1    O8      2.273   1_545 S
Sm1    O9      2.230   1_556 S
Sm1    O10     2.220   1_545 S
Sm2    O7      2.262   .     S
Sm2    O12     2.225   .     S
Sm2    O11     2.225   1_465 S
Sm2    O14     2.273   1_565 S
Sm2    O15     2.230   1_554 S
Sm2    O16     2.220   1_565 S
C3     O13     1.272   1_554 A
C3     O14     1.273   1_655 A
C3     C24     1.470   1_655 S
C4     O15     1.283   1_554 A
C4     O16     1.281   1_565 A
C4     C31     1.474   1_565 S
O5     Sm1     2.225   1_465 S
O5     C17     1.283   1_455 A
O6     C17     1.283   1_545 A
O7     C18     1.272   1_554 A
O8     Sm1     2.273   1_565 S
O8     C18     1.273   1_655 A
O9     Sm1     2.230   1_554 S
O9     C19     1.283   1_554 A
O10    Sm1     2.220   1_565 S
O10    C19     1.281   1_565 A
O11    C0      1.283   1_655 A
O11    Sm2     2.225   1_645 S
O12    C0      1.283   1_565 A
O13    C3      1.272   1_556 A
O14    Sm2     2.273   1_545 S
O14    C3      1.273   1_455 A
O15    Sm2     2.230   1_556 S
O15    C4      1.283   1_556 A
O16    Sm2     2.220   1_545 S
O16    C4      1.281   1_545 A
C17    O5      1.283   1_655 A
C17    O6      1.283   1_565 A
C17    C44     1.476   1_665 S
C18    O7      1.272   1_556 A
C18    O8      1.273   1_455 A
C18    C21     1.470   1_556 S
C19    O9      1.283   1_556 A
C19    O10     1.281   1_545 A
C19    C34     1.474   1_556 S
C20    C25     1.398   .     A
C20    H26     1.083   .     S
C20    C21     1.402   1_656 A
C21    C22     1.405   .     A
C21    C20     1.402   1_454 A
C21    C18     1.470   1_554 S
C22    C23     1.398   .     A
C22    H27     1.083   .     S
C23    C24     1.402   .     A
C23    H28     1.083   .     S
C24    C25     1.405   1_454 A
C24    C3      1.470   1_455 S
C25    H29     1.083   .     S
C25    C24     1.405   1_656 A
C30    C35     1.397   .     A
C30    H36     1.083   .     S
C30    C31     1.403   1_565 A
C31    C30     1.403   1_545 A
C31    C32     1.405   1_554 A
C31    C4      1.474   1_545 S
C32    C33     1.397   .     A
C32    H37     1.083   .     S
C32    C31     1.405   1_556 A
C33    H38     1.083   .     S
C33    C34     1.403   1_556 A
C34    C33     1.403   1_554 A
C34    C35     1.405   1_545 A
C34    C19     1.474   1_554 S
C35    H39     1.083   .     S
C35    C34     1.405   1_565 A
C40    C41     1.405   .     A
C40    C45     1.398   .     A
C40    H46     1.083   .     S
C41    C42     1.405   1_445 A
C42    C43     1.398   .     A
C42    H47     1.083   .     S
C42    C41     1.405   1_665 A
C43    H48     1.083   .     S
C43    C44     1.405   1_665 A
C44    C45     1.405   .     A
C44    C43     1.405   1_445 A
C44    C17     1.476   1_445 S
C45    H49     1.083   .     S
