data_pcu+N248+E183
_audit_creation_date              2023-11-17
_audit_creation_method            'Materials Studio'
_symmetry_space_group_name_H-M    'P1'
_symmetry_Int_Tables_number       1
_symmetry_cell_setting            triclinic
loop_
_symmetry_equiv_pos_as_xyz
  x,y,z
_cell_length_a                    13.1820
_cell_length_b                    11.9098
_cell_length_c                    15.5959
_cell_angle_alpha                 84.1376
_cell_angle_beta                  90.1776
_cell_angle_gamma                 70.4960
loop_
_atom_site_label
_atom_site_type_symbol
_atom_site_fract_x
_atom_site_fract_y
_atom_site_fract_z
_atom_site_U_iso_or_equiv
_atom_site_adp_type
_atom_site_occupancy
O0     O     0.84690   0.99422   0.92766   0.00000  Uiso   1.00
Yb1    Yb    1.01770  -0.01224   0.10077   0.00000  Uiso   1.00
C2     C     1.01831   0.99343   0.26112   0.00000  Uiso   1.00
Yb3    Yb    0.01382   0.98404   0.91284   0.00000  Uiso   1.00
O4     O     0.84642  -0.00038   0.07615   0.00000  Uiso   1.00
C5     C     0.96663   0.20303   0.93289   0.00000  Uiso   1.00
C6     C     0.79770   0.00450   0.00077   0.00000  Uiso   1.00
O7     O     0.98067   0.08702   0.78842   0.00000  Uiso   1.00
C8     C     0.01542  -0.00835   0.75028   0.00000  Uiso   1.00
O9     O     0.93674   0.85453   0.10751   0.00000  Uiso   1.00
O10    O     0.06486   0.84473   1.01839   0.00000  Uiso   1.00
O11    O     0.17254   0.00752   0.07880   0.00000  Uiso   1.00
O12    O     0.04939   0.89374   0.80021   0.00000  Uiso   1.00
O13    O     0.17566   0.98878   0.93313   0.00000  Uiso   1.00
C14    C    -0.00904   0.79571   0.05344   0.00000  Uiso   1.00
C15    C     0.21925   1.00147   1.00510   0.00000  Uiso   1.00
O16    O     0.06287   0.89701   0.22634   0.00000  Uiso   1.00
O17    O     0.97360   0.08744   0.20864   0.00000  Uiso   1.00
O18    O    -0.01904   0.16969   0.86060   0.00000  Uiso   1.00
O19    O     0.95358   0.11615  -0.00657   0.00000  Uiso   1.00
C20    C    -0.02240   0.68665   1.02755   0.00000  Uiso   1.00
C21    C     0.93964   0.50009   0.02533   0.00000  Uiso   1.00
C22    C    -0.01071   0.51463   0.95094   0.00000  Uiso   1.00
S23    S     0.90813   0.37360   0.04703   0.00000  Uiso   1.00
S24    S     0.01382   0.40760   0.88276   0.00000  Uiso   1.00
S25    S     0.91609   0.60693   0.09380   0.00000  Uiso   1.00
S26    S     0.02802   0.63651   0.93204   0.00000  Uiso   1.00
C27    C     0.95991   0.32303  -0.04812   0.00000  Uiso   1.00
C28    C     0.32867   1.00840   1.00321   0.00000  Uiso   1.00
C29    C     0.50497   0.01668   0.04444   0.00000  Uiso   1.00
C30    C     0.50574   1.01028   0.95811   0.00000  Uiso   1.00
S31    S     0.61741   0.02000   0.09525   0.00000  Uiso   1.00
S32    S     0.61917   1.00623   0.90591   0.00000  Uiso   1.00
S33    S     0.39254   0.01807   0.09704   0.00000  Uiso   1.00
S34    S     0.39414   1.00373   0.90777   0.00000  Uiso   1.00
C35    C     0.68400   0.01202   0.00031   0.00000  Uiso   1.00
C36    C     1.01837   0.99498   0.35511   0.00000  Uiso   1.00
C37    C     0.99308   0.05534   0.50086   0.00000  Uiso   1.00
C38    C     0.04253   0.93470   0.51024   0.00000  Uiso   1.00
S39    S     0.96319   0.12667   0.59097   0.00000  Uiso   1.00
S40    S     0.07097   0.86212   0.61101   0.00000  Uiso   1.00
S41    S     0.96369   0.12729   0.39962   0.00000  Uiso   1.00
S42    S     0.07273   0.86295   0.42067   0.00000  Uiso   1.00
C43    C     0.01655  -0.00615   0.65604   0.00000  Uiso   1.00
loop_
_geom_bond_atom_site_label_1
_geom_bond_atom_site_label_2
_geom_bond_distance
_geom_bond_site_symmetry_2
_ccdc_geom_bond_type
O0     C6      1.310   1_566 A
O0     Yb3     2.177   1_655 S
Yb1    O4      2.244   .     S
Yb1    O17     2.129   .     S
Yb1    O19     2.112   .     S
Yb1    Yb3     2.936   1_644 S
Yb1    O9      2.183   1_545 S
Yb1    O10     2.164   1_644 S
Yb1    O11     2.156   1_655 S
Yb1    O16     2.119   1_645 S
C2     C36     1.468   .     S
C2     O16     1.279   1_655 A
C2     O17     1.281   1_565 A
Yb3    O10     2.146   .     S
Yb3    O12     2.125   .     S
Yb3    O13     2.176   .     S
Yb3    O0      2.177   1_455 S
Yb3    Yb1     2.936   1_466 S
Yb3    O7      2.147   1_465 S
Yb3    O18     2.175   1_565 S
Yb3    O19     2.064   1_466 S
O4     C6      1.325   .     A
C5     O18     1.228   1_655 D
C5     O19     1.383   1_556 S
C5     C27     1.463   1_556 S
C6     C35     1.471   .     S
C6     O0      1.310   1_544 A
O7     Yb3     2.147   1_645 S
O7     C8      1.283   1_655 A
C8     C43     1.467   .     S
C8     O7      1.283   1_455 A
C8     O12     1.277   1_545 A
O9     Yb1     2.183   1_565 S
O9     C14     1.226   1_655 D
O10    Yb1     2.164   1_466 S
O10    C14     1.381   1_556 S
O11    Yb1     2.156   1_455 S
O11    C15     1.303   1_544 A
O12    C8      1.277   1_565 A
O13    C15     1.305   .     A
C14    O9      1.226   1_455 D
C14    O10     1.381   1_554 S
C14    C20     1.463   1_554 S
C15    C28     1.472   .     S
C15    O11     1.303   1_566 A
O16    Yb1     2.119   1_465 S
O16    C2      1.279   1_455 A
O17    C2      1.281   1_545 A
O18    Yb3     2.175   1_545 S
O18    C5      1.228   1_455 D
O19    Yb3     2.064   1_644 S
O19    C5      1.383   1_554 S
C20    S26     1.715   .     A
C20    S25     1.716   1_456 A
C20    C14     1.463   1_556 S
C21    S23     1.694   .     A
C21    S25     1.695   .     A
C21    C22     1.358   1_654 A
C22    S24     1.692   .     A
C22    S26     1.692   .     A
C22    C21     1.358   1_456 A
S23    C27     1.716   .     A
S24    C27     1.715   1_456 A
S25    C20     1.716   1_654 A
C27    S24     1.715   1_654 A
C27    C5      1.463   1_554 S
C28    S34     1.719   .     A
C28    S33     1.719   1_566 A
C29    S31     1.692   .     A
C29    S33     1.692   .     A
C29    C30     1.356   1_544 A
C30    S32     1.694   .     A
C30    S34     1.694   .     A
C30    C29     1.356   1_566 A
S31    C35     1.718   .     A
S32    C35     1.719   1_566 A
S33    C28     1.719   1_544 A
C35    S32     1.719   1_544 A
C36    S41     1.718   1_565 A
C36    S42     1.716   1_655 A
C37    S39     1.696   .     A
C37    S41     1.696   .     A
C37    C38     1.357   1_645 A
C38    S40     1.691   .     A
C38    S42     1.691   .     A
C38    C37     1.357   1_465 A
S39    C43     1.718   1_655 A
S40    C43     1.716   1_565 A
S41    C36     1.718   1_545 A
S42    C36     1.716   1_455 A
C43    S39     1.718   1_455 A
C43    S40     1.716   1_545 A
