data_pcu+N394+E191
_audit_creation_date              2023-11-17
_audit_creation_method            'Materials Studio'
_symmetry_space_group_name_H-M    'P1'
_symmetry_Int_Tables_number       1
_symmetry_cell_setting            triclinic
loop_
_symmetry_equiv_pos_as_xyz
  x,y,z
_cell_length_a                    20.4474
_cell_length_b                    17.9901
_cell_length_c                    17.3524
_cell_angle_alpha                 90.2580
_cell_angle_beta                  87.4386
_cell_angle_gamma                 90.0734
loop_
_atom_site_label
_atom_site_type_symbol
_atom_site_fract_x
_atom_site_fract_y
_atom_site_fract_z
_atom_site_U_iso_or_equiv
_atom_site_adp_type
_atom_site_occupancy
Pr0    Pr    0.07057   1.00019  -0.00200   0.00000  Uiso   1.00
Pr1    Pr    0.92962  -0.00004   1.00228   0.00000  Uiso   1.00
O2     O     0.94423   0.12656   1.00109   0.00000  Uiso   1.00
O3     O     0.05596   0.12673  -0.00017   0.00000  Uiso   1.00
O4     O     0.17098   0.00033   0.93657   0.00000  Uiso   1.00
O5     O     0.16596   1.00030   0.06088   0.00000  Uiso   1.00
O6     O     0.99853   1.00020   0.10004   0.00000  Uiso   1.00
O7     O     0.10461   1.00050   0.12066   0.00000  Uiso   1.00
C8     C     0.95076  -0.00027   0.84879   0.00000  Uiso   1.00
C9     C     1.00010   0.16087   0.00050   0.00000  Uiso   1.00
C10    C     0.20226   0.00037   0.99874   0.00000  Uiso   1.00
C11    C     0.79793  -0.00018   0.00155   0.00000  Uiso   1.00
C12    C     0.00010   0.83929   0.99974   0.00000  Uiso   1.00
C13    C     0.04943   1.00040   0.15149   0.00000  Uiso   1.00
O14    O     0.05597   0.87360  -0.00084   0.00000  Uiso   1.00
O15    O     0.94423   0.87343   1.00044   0.00000  Uiso   1.00
O16    O     0.82922   0.99988   0.06372   0.00000  Uiso   1.00
O17    O     0.83423  -0.00017   0.93940   0.00000  Uiso   1.00
O18    O     0.00166  -0.00005   0.90024   0.00000  Uiso   1.00
O19    O     0.89558  -0.00037   0.87962   0.00000  Uiso   1.00
Ni20   Ni    0.00010   0.50008  -0.00015   0.00000  Uiso   1.00
C21    C     0.00010   0.75686  -0.00036   0.00000  Uiso   1.00
C22    C     0.05904   0.71705   0.00293   0.00000  Uiso   1.00
C23    C     0.05787   0.63941   0.00297   0.00000  Uiso   1.00
C24    C     0.94234   0.63922   0.99633   0.00000  Uiso   1.00
C25    C     0.94117   0.71685   0.99634   0.00000  Uiso   1.00
H26    H     0.10565   0.25503   0.00582   0.00000  Uiso   1.00
H27    H     0.89455   0.25470   0.99522   0.00000  Uiso   1.00
H28    H     0.89710   0.39164   0.99491   0.00000  Uiso   1.00
H29    H     0.10315   0.39198   0.00539   0.00000  Uiso   1.00
N30    N     1.00013   0.39780   1.00002   0.00000  Uiso   1.00
N31    N     0.00010   0.60236  -0.00031   0.00000  Uiso   1.00
H32    H     0.10560   0.74547   0.00564   0.00000  Uiso   1.00
H33    H     0.10307   0.60851   0.00567   0.00000  Uiso   1.00
H34    H     0.89713   0.60817   0.99367   0.00000  Uiso   1.00
H35    H     0.89461   0.74511   0.99360   0.00000  Uiso   1.00
C36    C     1.00010   0.24329   1.00047   0.00000  Uiso   1.00
C37    C     0.94115   0.28311   0.99748   0.00000  Uiso   1.00
C38    C     0.94232   0.36075   0.99726   0.00000  Uiso   1.00
C39    C     0.05792   0.36093   0.00309   0.00000  Uiso   1.00
C40    C     0.05907   0.28330   0.00328   0.00000  Uiso   1.00
Ni41   Ni    0.50010   0.00024   0.00017   0.00000  Uiso   1.00
C42    C     0.27444   0.00047  -0.00098   0.00000  Uiso   1.00
C43    C     0.30641  -0.00100   0.06891   0.00000  Uiso   1.00
C44    C     0.37476  -0.00104   0.06791   0.00000  Uiso   1.00
C45    C     0.38046   1.00194   0.93117   0.00000  Uiso   1.00
C46    C     0.31221   1.00197   0.92947   0.00000  Uiso   1.00
H47    H     0.71092  -0.00164   0.12591   0.00000  Uiso   1.00
H48    H     0.72125   1.00119   0.87657   0.00000  Uiso   1.00
H49    H     0.60040   1.00142   0.87878   0.00000  Uiso   1.00
H50    H     0.59028  -0.00144   0.12254   0.00000  Uiso   1.00
N51    N     0.59008   1.00009   1.00063   0.00000  Uiso   1.00
N52    N     0.41012   0.00039  -0.00030   0.00000  Uiso   1.00
H53    H     0.27892  -0.00219   0.12371   0.00000  Uiso   1.00
H54    H     0.39978  -0.00220   0.12153   0.00000  Uiso   1.00
H55    H     0.40994   1.00314   0.87782   0.00000  Uiso   1.00
H56    H     0.28929   1.00318   0.87442   0.00000  Uiso   1.00
C57    C     0.72575   0.99978   1.00129   0.00000  Uiso   1.00
C58    C     0.69377   1.00061   0.93139   0.00000  Uiso   1.00
C59    C     0.62543   1.00077   0.93240   0.00000  Uiso   1.00
C60    C     0.61975  -0.00082   0.06917   0.00000  Uiso   1.00
C61    C     0.68800  -0.00096   0.07085   0.00000  Uiso   1.00
Ni62   Ni    0.00010   0.00000   0.50014   0.00000  Uiso   1.00
C63    C     1.03772   0.00050   0.23596   0.00000  Uiso   1.00
C64    C     0.97362   0.99799   0.26818   0.00000  Uiso   1.00
C65    C     0.96334   0.99790   0.34832   0.00000  Uiso   1.00
C66    C     0.07772   0.00292   0.36512   0.00000  Uiso   1.00
C67    C     0.09025   0.00305   0.28532   0.00000  Uiso   1.00
H68    H     0.85980   0.99457   0.73775   0.00000  Uiso   1.00
H69    H     0.06828   0.00445   0.76838   0.00000  Uiso   1.00
H70    H     0.08613   0.00452   0.62663   0.00000  Uiso   1.00
H71    H     0.88229   0.99486   0.59669   0.00000  Uiso   1.00
N72    N    -0.01491   0.99975   0.60549   0.00000  Uiso   1.00
N73    N     1.01510   0.00029   0.39479   0.00000  Uiso   1.00
H74    H     0.93190   0.99598   0.23190   0.00000  Uiso   1.00
H75    H     0.91406   0.99585   0.37365   0.00000  Uiso   1.00
H76    H     0.11790   0.00487   0.40359   0.00000  Uiso   1.00
H77    H     0.14040   0.00522   0.26254   0.00000  Uiso   1.00
C78    C    -0.03753   0.99962   0.76432   0.00000  Uiso   1.00
C79    C     0.02657   0.00229   0.73210   0.00000  Uiso   1.00
C80    C     0.03685   0.00234   0.65196   0.00000  Uiso   1.00
C81    C     0.92247   0.99696   0.63516   0.00000  Uiso   1.00
C82    C     0.90994   0.99687   0.71496   0.00000  Uiso   1.00
loop_
_geom_bond_atom_site_label_1
_geom_bond_atom_site_label_2
_geom_bond_distance
_geom_bond_site_symmetry_2
_ccdc_geom_bond_type
Pr0    O5      2.277   .     S
Pr0    O7      2.269   .     S
Pr0    O14     2.297   .     S
Pr0    O3      2.296   1_565 S
Pr0    O4      2.271   1_564 S
Pr0    O6      2.252   1_455 S
Pr0    O18     2.253   1_564 S
Pr1    O2      2.297   .     S
Pr1    O17     2.277   .     S
Pr1    O19     2.269   .     S
Pr1    O6      2.253   1_546 S
Pr1    O15     2.296   1_545 S
Pr1    O16     2.271   1_546 S
Pr1    O18     2.252   1_655 S
O2     C9      1.297   1_556 D
O3     Pr0     2.296   1_545 S
O3     C9      1.297   1_455 S
O4     C10     1.279   .     A
O4     Pr0     2.271   1_546 S
O5     C10     1.282   1_564 A
O6     Pr0     2.252   1_655 S
O6     Pr1     2.253   1_564 S
O6     C13     1.401   1_655 S
O7     C13     1.227   .     D
C8     O19     1.227   .     D
C8     O18     1.401   1_655 S
C8     C78     1.475   1_645 S
C9     O2      1.297   1_554 D
C9     O3      1.297   1_655 S
C9     C36     1.483   1_554 S
C10    O5      1.282   1_546 A
C10    C42     1.476   1_556 S
C11    O16     1.278   1_545 A
C11    O17     1.282   1_554 A
C11    C57     1.476   1_544 S
C12    O14     1.297   1_556 A
C12    O15     1.297   1_455 A
C12    C21     1.483   1_556 S
C13    O6      1.401   1_455 S
C13    C63     1.475   1_465 S
O14    C12     1.297   1_554 A
O15    Pr1     2.296   1_565 S
O15    C12     1.297   1_655 A
O16    Pr1     2.271   1_564 S
O16    C11     1.278   1_565 A
O17    C11     1.282   1_556 A
O18    Pr0     2.253   1_546 S
O18    Pr1     2.252   1_455 S
O18    C8      1.401   1_455 S
Ni20   N31     1.840   .     S
Ni20   N30     1.840   1_454 S
C21    C22     1.406   .     A
C21    C25     1.406   1_454 A
C21    C12     1.483   1_554 S
C22    C23     1.397   .     A
C22    H32     1.083   .     S
C23    N31     1.359   .     A
C23    H33     1.082   .     S
C24    C25     1.397   .     A
C24    H34     1.082   .     S
C24    N31     1.359   1_656 A
C25    H35     1.083   .     S
C25    C21     1.406   1_656 A
H26    C40     1.083   .     S
H27    C37     1.083   .     S
H28    C38     1.082   .     S
H29    C39     1.082   .     S
N30    C38     1.359   .     A
N30    Ni20    1.840   1_656 S
N30    C39     1.359   1_656 A
N31    C24     1.359   1_454 A
C36    C37     1.406   .     A
C36    C40     1.406   1_656 A
C36    C9      1.483   1_556 S
C37    C38     1.397   .     A
C39    C40     1.397   .     A
C39    N30     1.359   1_454 A
C40    C36     1.406   1_454 A
Ni41   N52     1.840   .     S
Ni41   N51     1.840   1_544 S
C42    C43     1.404   .     A
C42    C46     1.404   1_544 A
C42    C10     1.476   1_554 S
C43    C44     1.397   .     A
C43    H53     1.083   .     S
C44    N52     1.359   .     A
C44    H54     1.082   .     S
C45    C46     1.397   .     A
C45    H55     1.082   .     S
C45    N52     1.359   1_566 A
C46    H56     1.083   .     S
C46    C42     1.404   1_566 A
H47    C61     1.083   .     S
H48    C58     1.083   .     S
H49    C59     1.082   .     S
H50    C60     1.082   .     S
N51    C59     1.359   .     A
N51    Ni41    1.840   1_566 S
N51    C60     1.359   1_566 A
N52    C45     1.359   1_544 A
C57    C58     1.404   .     A
C57    C61     1.404   1_566 A
C57    C11     1.476   1_566 S
C58    C59     1.397   .     A
C60    C61     1.397   .     A
C60    N51     1.359   1_544 A
C61    C57     1.404   1_544 A
Ni62   N72     1.840   1_545 S
Ni62   N73     1.840   1_455 S
C63    C64     1.403   1_545 A
C63    C67     1.404   1_655 A
C63    C13     1.475   1_645 S
C64    C65     1.397   .     A
C64    H74     1.083   .     S
C64    C63     1.403   1_565 A
C65    H75     1.082   .     S
C65    N73     1.359   1_565 A
C66    C67     1.397   .     A
C66    H76     1.082   .     S
C66    N73     1.359   1_455 A
C67    H77     1.083   .     S
C67    C63     1.404   1_455 A
H68    C82     1.083   .     S
H69    C79     1.083   .     S
H70    C80     1.082   .     S
H71    C81     1.082   .     S
N72    Ni62    1.840   1_565 S
N72    C80     1.359   1_565 A
N72    C81     1.359   1_455 A
N73    Ni62    1.840   1_655 S
N73    C65     1.359   1_545 A
N73    C66     1.359   1_655 A
C78    C79     1.403   1_565 A
C78    C82     1.404   1_455 A
C78    C8      1.475   1_465 S
C79    C80     1.397   .     A
C79    C78     1.403   1_545 A
C80    N72     1.359   1_545 A
C81    C82     1.397   .     A
C81    N72     1.359   1_655 A
C82    C78     1.404   1_655 A
