data_pcu+N139+E225
_audit_creation_date              2023-11-17
_audit_creation_method            'Materials Studio'
_symmetry_space_group_name_H-M    'P1'
_symmetry_Int_Tables_number       1
_symmetry_cell_setting            triclinic
loop_
_symmetry_equiv_pos_as_xyz
  x,y,z
_cell_length_a                    20.8186
_cell_length_b                    17.7889
_cell_length_c                    23.4276
_cell_angle_alpha                 83.0137
_cell_angle_beta                  99.5756
_cell_angle_gamma                 46.4423
loop_
_atom_site_label
_atom_site_type_symbol
_atom_site_fract_x
_atom_site_fract_y
_atom_site_fract_z
_atom_site_U_iso_or_equiv
_atom_site_adp_type
_atom_site_occupancy
C0     C     0.07730  -0.04016   0.21428   0.00000  Uiso   1.00
Sm1    Sm    0.92972   0.01936   0.90110   0.00000  Uiso   1.00
Sm2    Sm    0.07612   0.98118   0.10079   0.00000  Uiso   1.00
C3     C     0.96056   0.14288  -0.04001   0.00000  Uiso   1.00
C4     C     0.18262   1.00351   0.07731   0.00000  Uiso   1.00
O5     O     0.00664   0.96814   0.83502   0.00000  Uiso   1.00
O6     O     0.85365   0.10063   0.80019   0.00000  Uiso   1.00
O7     O     0.06765   0.86196   0.09473   0.00000  Uiso   1.00
O8     O     1.04047   0.91037   0.99674   0.00000  Uiso   1.00
O9     O     0.81602   0.07011  -0.06398   0.00000  Uiso   1.00
O10    O     0.88569   0.93564   0.89966   0.00000  Uiso   1.00
O11    O     1.00053   0.03176   0.16762   0.00000  Uiso   1.00
O12    O     0.15348   0.89903   0.20154   0.00000  Uiso   1.00
O13    O     0.93761   0.13905   0.90739   0.00000  Uiso   1.00
O14    O    -0.03575   0.09126   0.00541   0.00000  Uiso   1.00
O15    O     0.18912   0.93061   1.06499   0.00000  Uiso   1.00
O16    O     0.12065   0.06434   0.10193   0.00000  Uiso   1.00
C17    C     0.93033   1.03974   0.78802   0.00000  Uiso   1.00
C18    C     0.04420   0.85863   1.04211   0.00000  Uiso   1.00
C19    C     0.82311  -0.00323   0.92382   0.00000  Uiso   1.00
C20    C     0.02073   0.79810   0.03529   0.00000  Uiso   1.00
C21    C     0.05014   0.73579   0.99571   0.00000  Uiso   1.00
C22    C     0.02899   0.67697   0.99007   0.00000  Uiso   1.00
C23    C     0.97981   0.67766   1.02516   0.00000  Uiso   1.00
C24    C     0.95060   0.74013   0.06450   0.00000  Uiso   1.00
C25    C     0.97195   0.79866   0.07028   0.00000  Uiso   1.00
C26    C     0.01634   0.52367   1.00882   0.00000  Uiso   1.00
H27    H     0.91819   0.26540   0.03467   0.00000  Uiso   1.00
H28    H     0.95884   0.36437   1.04695   0.00000  Uiso   1.00
H29    H     0.09232   0.25996   0.91101   0.00000  Uiso   1.00
H30    H     0.05343   0.15852   0.89964   0.00000  Uiso   1.00
H31    H     0.91843   0.51793   0.99038   0.00000  Uiso   1.00
O32    O     0.05354   0.37527   0.98450   0.00000  Uiso   1.00
O33    O     0.95256   0.62465   1.01906   0.00000  Uiso   1.00
C34    C     0.98377   0.20367   0.96681   0.00000  Uiso   1.00
C35    C     0.95557   0.26450   1.00717   0.00000  Uiso   1.00
C36    C     0.97752   0.32241   1.01341   0.00000  Uiso   1.00
C37    C     0.02565   0.32302   0.97784   0.00000  Uiso   1.00
C38    C     0.05329   0.26247   0.93751   0.00000  Uiso   1.00
C39    C     0.03136   0.20461   0.93124   0.00000  Uiso   1.00
C40    C     0.99002   0.47592   0.99508   0.00000  Uiso   1.00
H41    H     0.04942   0.63301   0.95747   0.00000  Uiso   1.00
H42    H     0.91122   0.74313   0.09084   0.00000  Uiso   1.00
H43    H     0.08838   0.73385   0.96862   0.00000  Uiso   1.00
H44    H     0.08802   0.48151   1.01366   0.00000  Uiso   1.00
H45    H     0.94893   0.84595   0.10127   0.00000  Uiso   1.00
C46    C     0.23984   1.01889   1.06261   0.00000  Uiso   1.00
C47    C     0.29138   0.96801   0.02405   0.00000  Uiso   1.00
C48    C     0.34274   0.98597   0.00833   0.00000  Uiso   1.00
C49    C     0.34496   0.05356   0.03204   0.00000  Uiso   1.00
C50    C     0.29201   0.10576   1.06951   0.00000  Uiso   1.00
C51    C     0.24042   0.08813   1.08511   0.00000  Uiso   1.00
C52    C     0.48014   0.99025   0.01008   0.00000  Uiso   1.00
H53    H     0.80754  -0.13132   0.88755   0.00000  Uiso   1.00
H54    H     0.71684  -0.16235  -0.08527   0.00000  Uiso   1.00
H55    H     0.62395   1.05370   0.02221   0.00000  Uiso   1.00
H56    H     0.71255   1.08657  -0.00569   0.00000  Uiso   1.00
H57    H     0.49173   0.09306  -0.02387   0.00000  Uiso   1.00
O58    O     0.61265   0.92264  -0.01604   0.00000  Uiso   1.00
O59    O     0.39318   0.07688   0.01632   0.00000  Uiso   1.00
C60    C     0.76550  -0.01836  -0.06205   0.00000  Uiso   1.00
C61    C     0.76648  -0.08920  -0.08380   0.00000  Uiso   1.00
C62    C     0.71496  -0.10705  -0.06837   0.00000  Uiso   1.00
C63    C     0.66070   0.94628  -0.03170   0.00000  Uiso   1.00
C64    C     0.66122   1.01564  -0.00879   0.00000  Uiso   1.00
C65    C     0.71256   1.03375  -0.02432   0.00000  Uiso   1.00
C66    C     0.52509   0.00950  -0.01048   0.00000  Uiso   1.00
H67    H     0.37917   0.94867  -0.02315   0.00000  Uiso   1.00
H68    H     0.29152   0.15959   1.08708   0.00000  Uiso   1.00
H69    H     0.29039   0.91618   0.00502   0.00000  Uiso   1.00
H70    H     0.51337   0.90674   0.02344   0.00000  Uiso   1.00
H71    H     0.20039   0.12937   1.11436   0.00000  Uiso   1.00
C72    C     1.07784  -0.05173   0.27790   0.00000  Uiso   1.00
C73    C     0.99279   0.00844   0.28946   0.00000  Uiso   1.00
C74    C     0.99312  -0.00184   0.34964   0.00000  Uiso   1.00
C75    C     0.07868   0.92885   0.39946   0.00000  Uiso   1.00
C76    C     0.16347   0.86706   0.38779   0.00000  Uiso   1.00
C77    C     0.16325   0.87708   0.32761   0.00000  Uiso   1.00
C78    C     0.00837   0.00622   0.47370   0.00000  Uiso   1.00
H79    H     0.08260   0.93737   0.75153   0.00000  Uiso   1.00
H80    H     0.08335   0.95782   0.64674   0.00000  Uiso   1.00
H81    H     0.78039   0.18862   0.57637   0.00000  Uiso   1.00
H82    H     0.77882   0.17060   0.68157   0.00000  Uiso   1.00
H83    H     0.05533   0.91301   0.56339   0.00000  Uiso   1.00
O84    O    -0.07203   0.08734   0.54228   0.00000  Uiso   1.00
O85    O     0.08326   0.91360   0.46086   0.00000  Uiso   1.00
C86    C    -0.06915   1.05103   0.72466   0.00000  Uiso   1.00
C87    C     0.01628   0.99129   0.71373   0.00000  Uiso   1.00
C88    C     0.01680   1.00212   0.65374   0.00000  Uiso   1.00
C89    C    -0.06828   0.07154   0.60349   0.00000  Uiso   1.00
C90    C     0.84648   0.13317   0.61453   0.00000  Uiso   1.00
C91    C     0.84583   0.12272   0.67450   0.00000  Uiso   1.00
C92    C     0.00300   0.99485   0.52947   0.00000  Uiso   1.00
H93    H     0.92677   0.04304   0.35711   0.00000  Uiso   1.00
H94    H     0.22991   0.81182   0.42563   0.00000  Uiso   1.00
H95    H     0.92602   0.06280   0.25198   0.00000  Uiso   1.00
H96    H     0.95606   0.08804   0.43975   0.00000  Uiso   1.00
H97    H     0.22988   0.82932   0.32002   0.00000  Uiso   1.00
loop_
_geom_bond_atom_site_label_1
_geom_bond_atom_site_label_2
_geom_bond_distance
_geom_bond_site_symmetry_2
_ccdc_geom_bond_type
C0     O11     1.283   1_455 A
C0     O12     1.283   1_545 A
C0     C72     1.477   1_455 S
Sm1    O6      2.226   .     S
Sm1    O13     2.265   .     S
Sm1    O5      2.224   1_645 S
Sm1    O8      2.271   1_545 S
Sm1    O9      2.228   1_556 S
Sm1    O10     2.223   1_545 S
Sm2    O7      2.265   .     S
Sm2    O12     2.226   .     S
Sm2    O11     2.225   1_465 S
Sm2    O14     2.274   1_565 S
Sm2    O15     2.229   1_554 S
Sm2    O16     2.222   1_565 S
C3     O13     1.273   1_554 A
C3     O14     1.273   1_655 A
C3     C34     1.471   1_554 S
C4     O15     1.283   1_554 A
C4     O16     1.282   1_565 A
C4     C46     1.475   1_554 S
O5     Sm1     2.224   1_465 S
O5     C17     1.283   1_455 A
O6     C17     1.283   1_545 A
O7     C18     1.272   1_554 A
O8     Sm1     2.271   1_565 S
O8     C18     1.272   1_655 A
O9     Sm1     2.228   1_554 S
O9     C19     1.283   1_554 A
O10    Sm1     2.223   1_565 S
O10    C19     1.282   1_565 A
O11    C0      1.283   1_655 A
O11    Sm2     2.225   1_645 S
O12    C0      1.283   1_565 A
O13    C3      1.273   1_556 A
O14    Sm2     2.274   1_545 S
O14    C3      1.273   1_455 A
O15    Sm2     2.229   1_556 S
O15    C4      1.283   1_556 A
O16    Sm2     2.222   1_545 S
O16    C4      1.282   1_545 A
C17    O5      1.283   1_655 A
C17    O6      1.283   1_565 A
C17    C86     1.476   1_655 S
C18    O7      1.272   1_556 A
C18    O8      1.272   1_455 A
C18    C20     1.471   1_556 S
C19    O9      1.283   1_556 A
C19    O10     1.282   1_545 A
C19    C60     1.475   1_556 S
C20    C21     1.402   1_554 A
C20    C25     1.403   1_455 A
C20    C18     1.471   1_554 S
C21    C22     1.398   .     A
C21    H43     1.083   .     S
C21    C20     1.402   1_556 A
C22    H41     1.082   .     S
C22    C23     1.411   1_455 A
C23    O33     1.405   .     S
C23    C22     1.411   1_655 A
C23    C24     1.399   1_556 A
C24    C25     1.397   .     A
C24    H42     1.082   .     S
C24    C23     1.399   1_554 A
C25    H45     1.083   .     S
C25    C20     1.403   1_655 A
C26    H44     1.088   .     S
C26    O33     1.404   1_455 S
C26    C40     1.332   1_455 D
H27    C35     1.083   1_554 S
H28    C36     1.082   .     S
H29    C38     1.083   .     S
H30    C39     1.083   .     S
H31    C40     1.087   .     S
O32    C37     1.405   .     S
O32    C40     1.403   1_455 S
O33    C26     1.404   1_655 S
C34    C35     1.403   .     A
C34    C39     1.404   1_655 A
C34    C3      1.471   1_556 S
C35    C36     1.398   .     A
C35    H27     1.083   1_556 S
C36    C37     1.410   1_655 A
C37    C38     1.399   .     A
C37    C36     1.410   1_455 A
C38    C39     1.397   .     A
C39    C34     1.404   1_455 A
C40    C26     1.332   1_655 D
C40    O32     1.403   1_655 S
C46    C47     1.403   1_556 A
C46    C51     1.404   1_565 A
C46    C4      1.475   1_556 S
C47    C48     1.398   .     A
C47    H69     1.083   .     S
C47    C46     1.403   1_554 A
C48    H67     1.082   .     S
C48    C49     1.410   1_565 A
C49    O59     1.406   .     S
C49    C48     1.410   1_545 A
C49    C50     1.399   1_554 A
C50    C51     1.397   .     A
C50    H68     1.082   .     S
C50    C49     1.399   1_556 A
C51    H71     1.083   .     S
C51    C46     1.404   1_545 A
C52    H70     1.087   .     S
C52    O59     1.404   1_565 S
C52    C66     1.333   1_565 D
H53    C61     1.083   1_556 S
H54    C62     1.083   .     S
H55    C64     1.082   .     S
H56    C65     1.083   .     S
H57    C66     1.087   .     S
O58    C63     1.406   .     S
O58    C66     1.405   1_565 S
O59    C52     1.404   1_545 S
C60    C61     1.404   .     A
C60    C65     1.404   1_545 A
C60    C19     1.475   1_554 S
C61    C62     1.397   .     A
C61    H53     1.083   1_554 S
C62    C63     1.399   1_545 A
C63    C64     1.410   .     A
C63    C62     1.399   1_565 A
C64    C65     1.398   .     A
C65    C60     1.404   1_565 A
C66    C52     1.333   1_545 D
C66    O58     1.405   1_545 S
C72    C73     1.404   .     A
C72    C77     1.404   1_645 A
C72    C0      1.477   1_655 S
C73    C74     1.398   .     A
C73    H95     1.083   .     S
C74    H93     1.082   .     S
C74    C75     1.410   1_645 A
C75    C76     1.399   .     A
C75    O85     1.406   .     S
C75    C74     1.410   1_465 A
C76    C77     1.398   .     A
C76    H94     1.082   .     S
C77    H97     1.083   .     S
C77    C72     1.404   1_465 A
C78    O85     1.404   1_545 S
C78    C92     1.333   1_545 D
C78    H96     1.088   1_455 S
H79    C87     1.083   .     S
H80    C88     1.082   .     S
H81    C90     1.082   .     S
H82    C91     1.083   .     S
H83    C92     1.088   .     S
O84    C89     1.406   .     S
O84    C92     1.404   1_545 S
O85    C78     1.404   1_565 S
C86    C87     1.404   .     A
C86    C91     1.405   1_465 A
C86    C17     1.476   1_455 S
C87    C88     1.398   .     A
C88    C89     1.409   1_565 A
C89    C88     1.409   1_545 A
C89    C90     1.399   1_455 A
C90    C91     1.398   .     A
C90    C89     1.399   1_655 A
C91    C86     1.405   1_645 A
C92    C78     1.333   1_565 D
C92    O84     1.404   1_565 S
H96    C78     1.088   1_655 S
