data_pcu+N144+E59
_audit_creation_date              2023-11-17
_audit_creation_method            'Materials Studio'
_symmetry_space_group_name_H-M    'P1'
_symmetry_Int_Tables_number       1
_symmetry_cell_setting            triclinic
loop_
_symmetry_equiv_pos_as_xyz
  x,y,z
_cell_length_a                    22.6353
_cell_length_b                    18.0595
_cell_length_c                    18.3827
_cell_angle_alpha                 82.2718
_cell_angle_beta                  62.9447
_cell_angle_gamma                 109.4294
loop_
_atom_site_label
_atom_site_type_symbol
_atom_site_fract_x
_atom_site_fract_y
_atom_site_fract_z
_atom_site_U_iso_or_equiv
_atom_site_adp_type
_atom_site_occupancy
C0     C     0.11573   0.02419   0.12250   0.00000  Uiso   1.00
Er1    Er    0.95194   1.00198   0.99123   0.00000  Uiso   1.00
Er2    Er    0.04540   1.01600   0.01392   0.00000  Uiso   1.00
C3     C    -0.04269   1.10116   0.11130   0.00000  Uiso   1.00
O4     O     0.11777   0.13007  -0.09802   0.00000  Uiso   1.00
C5     C    -0.09708   0.85994   0.14499   0.00000  Uiso   1.00
C6     C     1.04545   0.91614   0.89569   0.00000  Uiso   1.00
C7     C     0.87464  -0.05099   0.92061   0.00000  Uiso   1.00
O8     O     0.05037  -0.01441   0.18024   0.00000  Uiso   1.00
O9     O     0.13750   0.03437   1.03606   0.00000  Uiso   1.00
O10    O     0.07954   0.94406   0.93231   0.00000  Uiso   1.00
O11    O     0.99077   0.93081   0.90689   0.00000  Uiso   1.00
O12    O    -0.03055   0.90030   0.12420   0.00000  Uiso   1.00
O13    O     0.87917   0.88700   1.10182   0.00000  Uiso   1.00
C14    C     1.09335   0.15785  -0.13994   0.00000  Uiso   1.00
O15    O     1.02662   0.11752  -0.11866   0.00000  Uiso   1.00
O16    O     0.01310   1.08874   0.09552   0.00000  Uiso   1.00
O17    O     0.92103   1.07252   0.07724   0.00000  Uiso   1.00
O18    O     0.93019  -0.06377   0.90692   0.00000  Uiso   1.00
O19    O     0.86157  -0.01000  -0.02858   0.00000  Uiso   1.00
C20    C     0.08346   0.38780  -0.09312   0.00000  Uiso   1.00
C21    C     0.05558   0.46598   0.00637   0.00000  Uiso   1.00
H22    H     0.81198   0.54767   1.08674   0.00000  Uiso   1.00
C23    C     1.00776   0.45933   0.91245   0.00000  Uiso   1.00
C24    C     1.04178   0.40996  -0.12225   0.00000  Uiso   1.00
N25    N     0.87691   0.71586   0.19424   0.00000  Uiso   1.00
N26    N     0.11373   0.30023  -0.18747   0.00000  Uiso   1.00
O27    O     0.81559   0.68331   1.12318   0.00000  Uiso   1.00
O28    O     0.15814   0.32156  -0.10140   0.00000  Uiso   1.00
H29    H     0.79469   0.75883   1.23767   0.00000  Uiso   1.00
H30    H     0.85606   0.78768   0.27633   0.00000  Uiso   1.00
H31    H     0.87550   0.46697   1.02011   0.00000  Uiso   1.00
H32    H     0.00287   0.70229   0.08909   0.00000  Uiso   1.00
H33    H     0.06651   0.62214   0.02198   0.00000  Uiso   1.00
H34    H    -0.08935   0.70378   0.21345   0.00000  Uiso   1.00
H35    H     0.12064   0.40096  -0.00331   0.00000  Uiso   1.00
H36    H     0.20017   0.26346  -0.22743   0.00000  Uiso   1.00
H37    H     0.14370   0.23223   0.72803   0.00000  Uiso   1.00
H38    H     0.06049   0.48555   0.05733   0.00000  Uiso   1.00
H39    H     1.03503   0.39066   0.82790   0.00000  Uiso   1.00
H40    H     0.97680   0.47582   0.88794   0.00000  Uiso   1.00
H41    H     1.08181   0.30925   0.78884   0.00000  Uiso   1.00
C42    C     0.86761   0.56451   1.07273   0.00000  Uiso   1.00
C43    C     0.86204   0.67745   1.13694   0.00000  Uiso   1.00
C44    C     0.85319   0.77921   0.21907   0.00000  Uiso   1.00
C45    C    -0.02403   0.53790   0.01610   0.00000  Uiso   1.00
C46    C     0.90174   0.63011   1.09490   0.00000  Uiso   1.00
C47    C     0.90412   0.51861   1.03420   0.00000  Uiso   1.00
C48    C    -0.02601   0.65033   0.07559   0.00000  Uiso   1.00
C49    C     0.01060   0.60457   0.03682   0.00000  Uiso   1.00
C50    C     0.08971   0.41684  -0.02826   0.00000  Uiso   1.00
C51    C     0.12066   0.33490  -0.12780   0.00000  Uiso   1.00
C52    C     0.14236   0.24002  -0.21234   0.00000  Uiso   1.00
C53    C     0.01397   0.48759  -0.02263   0.00000  Uiso   1.00
C54    C     0.65095  -0.06989   0.92363   0.00000  Uiso   1.00
C55    C     0.52159  -0.10353   0.97819   0.00000  Uiso   1.00
H56    H     0.41102   0.11581   0.13520   0.00000  Uiso   1.00
C57    C     0.60741   0.03590   0.94969   0.00000  Uiso   1.00
C58    C     0.66474   0.01233   0.92207   0.00000  Uiso   1.00
N59    N     0.23025   0.03516   1.11159   0.00000  Uiso   1.00
N60    N     0.76666  -0.06202   0.91230   0.00000  Uiso   1.00
O61    O     0.30829   0.13975   0.12955   0.00000  Uiso   1.00
O62    O     0.70974  -0.15016   0.86384   0.00000  Uiso   1.00
H63    H     0.14516   0.04589   0.21627   0.00000  Uiso   1.00
H64    H     0.19681   0.13178   1.11571   0.00000  Uiso   1.00
H65    H     0.50978   0.07284   0.08288   0.00000  Uiso   1.00
H66    H     0.32241  -0.01896   1.00258   0.00000  Uiso   1.00
H67    H     0.42160   0.93851   0.95013   0.00000  Uiso   1.00
H68    H     0.21613  -0.02477   1.10757   0.00000  Uiso   1.00
H69    H     0.56686   0.80917   0.95195   0.00000  Uiso   1.00
H70    H     0.86651  -0.05056   0.80911   0.00000  Uiso   1.00
H71    H     0.81077  -0.14972  -0.10311   0.00000  Uiso   1.00
H72    H     0.46632   0.85036   1.00080   0.00000  Uiso   1.00
H73    H     0.71995   0.05901   0.89862   0.00000  Uiso   1.00
H74    H     0.61992   0.09980  -0.05260   0.00000  Uiso   1.00
H75    H     0.76541  -0.01774  -0.05662   0.00000  Uiso   1.00
C76    C     0.41260   0.07709   0.09484   0.00000  Uiso   1.00
C77    C     0.29891   0.07902   0.10603   0.00000  Uiso   1.00
C78    C     0.17222   0.06288   1.14466   0.00000  Uiso   1.00
C79    C     0.47369   0.00255   1.01208   0.00000  Uiso   1.00
C80    C     0.35817   0.05128   0.07405   0.00000  Uiso   1.00
C81    C     0.46944   0.05283   0.06452   0.00000  Uiso   1.00
C82    C     0.36211   0.00059   1.02187   0.00000  Uiso   1.00
C83    C     0.41922  -0.02362   0.99138   0.00000  Uiso   1.00
C84    C     0.57905  -0.12715   0.95046   0.00000  Uiso   1.00
C85    C     0.71103  -0.09622   0.89739   0.00000  Uiso   1.00
C86    C     0.83033  -0.08113   0.88066   0.00000  Uiso   1.00
C87    C     0.53498  -0.02200   0.97918   0.00000  Uiso   1.00
C88    C     0.07111   0.94138   0.63152   0.00000  Uiso   1.00
C89    C     0.09328  -0.01466   0.48660   0.00000  Uiso   1.00
H90    H     0.83855   0.93193   0.45646   0.00000  Uiso   1.00
C91    C     0.97380   0.95050   0.61269   0.00000  Uiso   1.00
C92    C     0.99868   0.93273   0.66674   0.00000  Uiso   1.00
N93    N     0.94965   1.13231   0.23915   0.00000  Uiso   1.00
N94    N     0.04792   0.86881   0.77674   0.00000  Uiso   1.00
O95    O     0.86415   0.99815   0.30582   0.00000  Uiso   1.00
O96    O     0.16462  -0.03847   0.66049   0.00000  Uiso   1.00
H97    H     0.87294   1.12851   0.20224   0.00000  Uiso   1.00
H98    H     0.96376   0.21574   0.13346   0.00000  Uiso   1.00
H99    H     0.88259   0.89684   0.54862   0.00000  Uiso   1.00
H100   H     0.05661   1.13391   0.27053   0.00000  Uiso   1.00
H101   H     0.09909   1.10198   0.36484   0.00000  Uiso   1.00
H102   H    -0.00938   1.18247   0.23748   0.00000  Uiso   1.00
H103   H     0.17455  -0.02441   0.51174   0.00000  Uiso   1.00
H104   H     0.12960   0.88670   0.80884   0.00000  Uiso   1.00
H105   H     0.04140   0.79880   0.88400   0.00000  Uiso   1.00
H106   H     0.13055   0.00426   0.41708   0.00000  Uiso   1.00
H107   H     0.96162   0.91399   0.73607   0.00000  Uiso   1.00
H108   H     0.91818   0.94512   0.64216   0.00000  Uiso   1.00
H109   H    -0.00673   0.82991   0.79740   0.00000  Uiso   1.00
C110   C     0.89557   0.96962   0.43580   0.00000  Uiso   1.00
C111   C     0.91639   1.05456   0.29958   0.00000  Uiso   1.00
C112   C     0.93335   1.14791   0.17164   0.00000  Uiso   1.00
C113   C    -0.00570   0.99689   0.46453   0.00000  Uiso   1.00
C114   C     0.94331   1.03694   0.35693   0.00000  Uiso   1.00
C115   C     0.92073   0.94981   0.48886   0.00000  Uiso   1.00
C116   C     0.01716   1.08347   0.33207   0.00000  Uiso   1.00
C117   C     0.04220   1.06397   0.38542   0.00000  Uiso   1.00
C118   C     0.11831  -0.03171   0.54080   0.00000  Uiso   1.00
C119   C     0.09843  -0.07448   0.68867   0.00000  Uiso   1.00
C120   C     0.06880   0.86470   0.84111   0.00000  Uiso   1.00
C121   C     0.02067   0.97685   0.52192   0.00000  Uiso   1.00
loop_
_geom_bond_atom_site_label_1
_geom_bond_atom_site_label_2
_geom_bond_distance
_geom_bond_site_symmetry_2
_ccdc_geom_bond_type
C0     O8      1.220   .     D
C0     O9      1.397   1_554 S
C0     C78     1.499   1_554 S
Er1    O11     2.208   .     S
Er1    O13     2.168   .     S
Er1    O15     2.169   1_566 S
Er1    O17     2.177   1_556 S
Er1    O18     2.203   1_565 S
Er1    O19     2.183   1_566 S
Er2    O12     2.175   .     S
Er2    O16     2.164   .     S
Er2    O4      2.170   1_565 S
Er2    O9      2.229   1_564 S
Er2    O10     2.162   1_554 S
C3     O16     1.266   .     A
C3     O17     1.267   1_455 A
C3     C112    1.499   1_455 S
O4     Er2     2.170   1_545 S
O4     C14     1.272   1_455 A
C5     O12     1.271   .     A
C5     O13     1.271   1_454 A
C5     C44     1.492   1_455 S
C6     O11     1.283   .     A
C6     O10     1.268   1_655 A
C6     C120    1.498   1_655 S
C7     O18     1.272   .     A
C7     C86     1.502   .     S
C7     O19     1.260   1_556 A
O9     C0      1.397   1_556 S
O9     Er2     2.229   1_546 S
O10    Er2     2.162   1_556 S
O10    C6      1.268   1_455 A
O13    C5      1.271   1_656 A
C14    O15     1.272   .     A
C14    O4      1.272   1_655 A
C14    C52     1.495   1_655 S
O15    Er1     2.169   1_544 S
O17    Er1     2.177   1_554 S
O17    C3      1.267   1_655 A
O18    Er1     2.203   1_545 S
O19    Er1     2.183   1_544 S
O19    C7      1.260   1_554 A
C20    C50     1.410   .     A
C20    C51     1.496   .     S
C20    C24     1.411   1_455 A
C21    H38     1.083   .     S
C21    C50     1.397   .     A
C21    C53     1.403   .     A
H22    C42     1.083   .     S
C23    H40     1.083   .     S
C23    C24     1.399   1_556 A
C23    C53     1.405   1_656 A
C24    C20     1.411   1_655 A
C24    C23     1.399   1_554 A
C24    H39     1.078   1_554 S
N25    C44     1.460   .     S
N25    H34     1.045   1_655 S
N25    C43     1.438   1_554 S
N26    C51     1.377   .     S
N26    C52     1.464   .     S
N26    H41     1.041   1_454 S
O27    C43     1.220   .     D
O28    C51     1.222   .     D
H29    C44     1.112   1_556 S
H30    C44     1.111   .     S
H31    C47     1.083   .     S
H32    C48     1.082   .     S
H33    C49     1.083   .     S
H34    N25     1.045   1_455 S
H35    C50     1.083   .     S
H36    C52     1.113   .     S
H37    C52     1.112   1_556 S
H39    C24     1.078   1_556 S
H41    N26     1.041   1_656 S
C42    C46     1.405   .     A
C42    C47     1.398   .     A
C43    C46     1.481   .     S
C43    N25     1.438   1_556 S
C44    H29     1.112   1_554 S
C44    C5      1.492   1_655 S
C45    C49     1.406   .     A
C45    C53     1.486   .     S
C45    C47     1.406   1_454 A
C46    C48     1.405   1_656 A
C47    C45     1.406   1_656 A
C48    C49     1.398   .     A
C48    C46     1.405   1_454 A
C52    H37     1.112   1_554 S
C52    C14     1.495   1_455 S
C53    C23     1.405   1_454 A
C54    C58     1.405   .     A
C54    C84     1.405   .     A
C54    C85     1.484   .     S
C55    C84     1.399   .     A
C55    C87     1.406   .     A
C55    H72     1.083   1_545 S
H56    C76     1.083   .     S
C57    C58     1.396   .     A
C57    C87     1.405   .     A
C57    H74     1.083   1_556 S
C58    H73     1.082   .     S
N59    H68     1.045   .     S
N59    C78     1.462   .     S
N59    C77     1.438   1_556 S
N60    C85     1.373   .     S
N60    C86     1.469   .     S
N60    H75     1.044   1_556 S
O61    C77     1.221   .     D
O62    C85     1.220   .     D
H63    C78     1.111   1_554 S
H64    C78     1.110   .     S
H65    C81     1.083   .     S
H66    C82     1.082   .     S
H67    C83     1.083   1_565 S
H69    C84     1.083   1_565 S
H70    C86     1.109   .     S
H71    C86     1.111   1_554 S
H72    C55     1.083   1_565 S
H74    C57     1.083   1_554 S
H75    N60     1.044   1_554 S
C76    C80     1.406   .     A
C76    C81     1.395   .     A
C77    C80     1.485   .     S
C77    N59     1.438   1_554 S
C78    H63     1.111   1_556 S
C78    C0      1.499   1_556 S
C79    C83     1.406   .     A
C79    C87     1.485   .     S
C79    C81     1.404   1_556 A
C80    C82     1.407   1_554 A
C81    C79     1.404   1_554 A
C82    C83     1.400   .     A
C82    C80     1.407   1_556 A
C83    H67     1.083   1_545 S
C84    H69     1.083   1_545 S
C86    H71     1.111   1_556 S
C88    C92     1.403   1_455 A
C88    C118    1.405   1_565 A
C88    C119    1.482   1_565 S
C89    H106    1.082   .     S
C89    C118    1.399   .     A
C89    C121    1.408   1_545 A
H90    C110    1.083   .     S
C91    C92     1.397   .     A
C91    H108    1.083   .     S
C91    C121    1.406   1_655 A
C92    H107    1.079   .     S
C92    C88     1.403   1_655 A
N93    C111    1.374   .     S
N93    C112    1.465   .     S
N93    H102    1.044   1_655 S
N94    H109    1.044   .     S
N94    C120    1.462   .     S
N94    C119    1.438   1_565 S
O95    C111    1.222   .     D
O96    C119    1.221   .     D
H97    C112    1.112   .     S
H98    C112    1.111   1_545 S
H99    C115    1.083   .     S
H100   C116    1.082   .     S
H101   C117    1.082   .     S
H102   N93     1.044   1_455 S
H103   C118    1.083   .     S
H104   C120    1.111   .     S
H105   C120    1.111   .     S
C110   C114    1.405   .     A
C110   C115    1.397   .     A
C111   C114    1.486   .     S
C112   H98     1.111   1_565 S
C112   C3      1.499   1_655 S
C113   C117    1.406   .     A
C113   C121    1.488   .     S
C113   C115    1.405   1_455 A
C114   C116    1.406   1_655 A
C115   C113    1.405   1_655 A
C116   C117    1.397   .     A
C116   C114    1.406   1_455 A
C118   C88     1.405   1_545 A
C119   C88     1.482   1_545 S
C119   N94     1.438   1_545 S
C120   C6      1.498   1_455 S
C121   C89     1.408   1_565 A
C121   C91     1.406   1_455 A
