data_pcu+N173+E59
_audit_creation_date              2023-11-17
_audit_creation_method            'Materials Studio'
_symmetry_space_group_name_H-M    'P1'
_symmetry_Int_Tables_number       1
_symmetry_cell_setting            triclinic
loop_
_symmetry_equiv_pos_as_xyz
  x,y,z
_cell_length_a                    17.1628
_cell_length_b                    22.0235
_cell_length_c                    15.6710
_cell_angle_alpha                 95.7977
_cell_angle_beta                  46.2914
_cell_angle_gamma                 63.8329
loop_
_atom_site_label
_atom_site_type_symbol
_atom_site_fract_x
_atom_site_fract_y
_atom_site_fract_z
_atom_site_U_iso_or_equiv
_atom_site_adp_type
_atom_site_occupancy
Gd0    Gd   -0.01331   0.95624   0.98073   0.00000  Uiso   1.00
Gd1    Gd    1.01560   0.04071   0.03031   0.00000  Uiso   1.00
O2     O     0.92808   0.11776  -0.01237   0.00000  Uiso   1.00
O3     O     0.89605   1.03880   0.94488   0.00000  Uiso   1.00
O4     O     1.22183   0.86984   0.73749   0.00000  Uiso   1.00
O5     O     0.25265  -0.05127   0.78141   0.00000  Uiso   1.00
O6     O    -0.22764   0.98539   1.15505   0.00000  Uiso   1.00
O7     O     0.95855   0.87582   0.92830   0.00000  Uiso   1.00
O8     O     0.07957   0.87706   1.01809   0.00000  Uiso   1.00
C9     C    -0.17718   0.92171   1.06205   0.00000  Uiso   1.00
O10    O     0.10671  -0.04199   0.06569   0.00000  Uiso   1.00
O11    O    -0.24998   1.04793   0.22941   0.00000  Uiso   1.00
C12    C     1.30211  -0.11491   0.68889   0.00000  Uiso   1.00
O13    O     0.77818   0.12862   0.27353   0.00000  Uiso   1.00
O14    O     1.22995   0.01142   0.85718   0.00000  Uiso   1.00
O15    O     0.04175   0.12239   0.08339   0.00000  Uiso   1.00
C16    C     0.88894   0.09961  -0.04764   0.00000  Uiso   1.00
C17    C     1.17780   0.07633  -0.05001   0.00000  Uiso   1.00
C18    C    -0.30276   1.11384   0.32187   0.00000  Uiso   1.00
C19    C     0.12171   0.89414   1.05020   0.00000  Uiso   1.00
C20    C     0.14156   0.31210   0.98426   0.00000  Uiso   1.00
C21    C     0.13905   0.42119   0.96651   0.00000  Uiso   1.00
H22    H     0.70689   0.67949   0.07671   0.00000  Uiso   1.00
C23    C     0.92040   0.44619   0.09998   0.00000  Uiso   1.00
C24    C     0.99411   0.36585   0.06814   0.00000  Uiso   1.00
N25    N    -0.20058   0.82136   0.08239   0.00000  Uiso   1.00
N26    N     0.19351   0.17988   0.93574   0.00000  Uiso   1.00
O27    O     0.62526   0.82566   0.15443   0.00000  Uiso   1.00
O28    O     0.31001   0.19965   0.93784   0.00000  Uiso   1.00
H29    H     0.73167   0.89750   0.03498   0.00000  Uiso   1.00
H30    H    -0.38787   0.95640   0.22713   0.00000  Uiso   1.00
H31    H     0.81785   0.54651   0.04550   0.00000  Uiso   1.00
H32    H    -0.11218   0.72416   1.14332   0.00000  Uiso   1.00
H33    H    -0.00022   0.59122   1.11064   0.00000  Uiso   1.00
H34    H    -0.09661   0.78353   1.03076   0.00000  Uiso   1.00
H35    H     0.32430   0.30207   0.87374   0.00000  Uiso   1.00
H36    H     0.27201   0.09928   0.97304   0.00000  Uiso   1.00
H37    H     1.38596   0.04474   0.78375   0.00000  Uiso   1.00
H38    H     0.19894   0.44032   0.92350   0.00000  Uiso   1.00
H39    H     0.93399   0.34682   0.11207   0.00000  Uiso   1.00
H40    H     0.80591   0.48665   0.16686   0.00000  Uiso   1.00
H41    H     1.13269   0.19840  -0.07240   0.00000  Uiso   1.00
C42    C     0.77053   0.66085   0.08448   0.00000  Uiso   1.00
C43    C     0.73235   0.78899   0.11750   0.00000  Uiso   1.00
C44    C     0.73181   0.90277   0.10605   0.00000  Uiso   1.00
C45    C     0.91817   0.55792   0.07513   0.00000  Uiso   1.00
C46    C     0.79210   0.71123   0.10814   0.00000  Uiso   1.00
C47    C     0.83256   0.58519   0.06842   0.00000  Uiso   1.00
C48    C    -0.12600   0.68532   1.11913   0.00000  Uiso   1.00
C49    C    -0.06379   0.60965   1.10281   0.00000  Uiso   1.00
C50    C     0.21186   0.34142   0.93632   0.00000  Uiso   1.00
C51    C     0.22034   0.22723   0.95116   0.00000  Uiso   1.00
C52    C     0.26762   0.09649   0.90541   0.00000  Uiso   1.00
C53    C    -0.00762   0.47462   1.04857   0.00000  Uiso   1.00
C54    C     0.63107   0.10422  -0.05394   0.00000  Uiso   1.00
C55    C     0.47297   0.09460  -0.01190   0.00000  Uiso   1.00
H56    H     0.68665   0.75923   0.74191   0.00000  Uiso   1.00
C57    C     0.68398   0.97406   0.89799   0.00000  Uiso   1.00
C58    C     0.71909   1.02024   0.89972   0.00000  Uiso   1.00
N59    N     0.26634   0.85546   1.06501   0.00000  Uiso   1.00
N60    N     0.81270   0.11197   0.86520   0.00000  Uiso   1.00
O61    O     0.48699   0.76844   0.81194   0.00000  Uiso   1.00
O62    O     0.56173   0.23395   0.04013   0.00000  Uiso   1.00
H63    H     0.27901   0.76803   0.97223   0.00000  Uiso   1.00
H64    H     0.10377   0.85005   0.17366   0.00000  Uiso   1.00
H65    H     0.75409   0.83639   0.74259   0.00000  Uiso   1.00
H66    H     0.20859   0.00035   0.14037   0.00000  Uiso   1.00
H67    H     0.27406   0.07672   0.14704   0.00000  Uiso   1.00
H68    H     0.20174  -0.09983   0.16994   0.00000  Uiso   1.00
H69    H     0.43853   0.20519   0.02546   0.00000  Uiso   1.00
H70    H     0.72971   0.21830   0.02046   0.00000  Uiso   1.00
H71    H     0.92564   0.14581   0.82672   0.00000  Uiso   1.00
H72    H     0.37926   0.12387   0.01990   0.00000  Uiso   1.00
H73    H     0.81132   0.99143   0.87023   0.00000  Uiso   1.00
H74    H     0.75111   0.91065   0.86592   0.00000  Uiso   1.00
H75    H     0.90727   1.04829   0.76525   0.00000  Uiso   1.00
C76    C     0.59591   0.82848   0.83136   0.00000  Uiso   1.00
C77    C     0.40148   0.82833   0.93547   0.00000  Uiso   1.00
C78    C     0.19346   0.83739   1.06574   0.00000  Uiso   1.00
C79    C     0.51955   0.96298   0.94477   0.00000  Uiso   1.00
C80    C     0.44224   0.87339   0.94317   0.00000  Uiso   1.00
C81    C     0.63420   0.87275   0.83242   0.00000  Uiso   1.00
C82    C     0.32761  -0.03667   0.05624   0.00000  Uiso   1.00
C83    C     0.36576   0.00741   0.05766   0.00000  Uiso   1.00
C84    C     0.50732   0.14101  -0.00934   0.00000  Uiso   1.00
C85    C     0.66360   0.15488  -0.04559   0.00000  Uiso   1.00
C86    C     0.83671   0.14928  -0.08273   0.00000  Uiso   1.00
C87    C     0.55917   0.01116  -0.05603   0.00000  Uiso   1.00
C88    C     0.24832  -0.06615   0.47298   0.00000  Uiso   1.00
C89    C     0.09562   0.02885   0.48040   0.00000  Uiso   1.00
H90    H     0.68930   1.00709   0.63911   0.00000  Uiso   1.00
C91    C     1.13106   0.90677   0.46223   0.00000  Uiso   1.00
C92    C     1.22061   0.88415   0.46278   0.00000  Uiso   1.00
N93    N     0.55636   0.17511   0.56889   0.00000  Uiso   1.00
N94    N     0.41604  -0.16026   0.45676   0.00000  Uiso   1.00
O95    O     0.58078   1.06523   0.57650   0.00000  Uiso   1.00
O96    O     0.31019  -0.02485   0.54386   0.00000  Uiso   1.00
H97    H     0.48804   1.14927   0.51085   0.00000  Uiso   1.00
H98    H     0.46837   0.23838   0.52554   0.00000  Uiso   1.00
H99    H     0.87367   0.95677   0.60316   0.00000  Uiso   1.00
H100   H    -0.19647   0.12886   0.44041   0.00000  Uiso   1.00
H101   H    -0.01167   0.07828   0.40285   0.00000  Uiso   1.00
H102   H     0.55101   0.22190   0.60284   0.00000  Uiso   1.00
H103   H     0.20757   0.04461   0.48469   0.00000  Uiso   1.00
H104   H     0.50344  -0.14478   0.49756   0.00000  Uiso   1.00
H105   H     0.52855   0.76351   0.47240   0.00000  Uiso   1.00
H106   H     0.04727   0.08624   0.49005   0.00000  Uiso   1.00
H107   H     1.26099   0.83000   0.46252   0.00000  Uiso   1.00
H108   H     1.11395   0.86617   0.45316   0.00000  Uiso   1.00
H109   H     0.44742   0.78617   0.39612   0.00000  Uiso   1.00
C110   C     0.75383   1.02319   0.58784   0.00000  Uiso   1.00
C111   C     0.61728   1.10359   0.56667   0.00000  Uiso   1.00
C112   C     0.54235   0.17220   0.48710   0.00000  Uiso   1.00
C113   C     0.94835   1.01260   0.49897   0.00000  Uiso   1.00
C114   C     0.72799   1.07417   0.54705   0.00000  Uiso   1.00
C115   C     0.86075   0.99386   0.56624   0.00000  Uiso   1.00
C116   C    -0.18492   0.09292   0.47962   0.00000  Uiso   1.00
C117   C    -0.07723   0.06314   0.45698   0.00000  Uiso   1.00
C118   C     0.18807   0.00503   0.47749   0.00000  Uiso   1.00
C119   C     0.32778  -0.08274   0.49181   0.00000  Uiso   1.00
C120   C     0.44924  -0.16782   0.52185   0.00000  Uiso   1.00
C121   C     1.06245  -0.01872   0.47653   0.00000  Uiso   1.00
loop_
_geom_bond_atom_site_label_1
_geom_bond_atom_site_label_2
_geom_bond_distance
_geom_bond_site_symmetry_2
_ccdc_geom_bond_type
Gd0    O6      2.254   .     S
Gd0    O8      2.229   .     S
Gd0    O3      2.227   1_455 S
Gd0    O4      2.223   1_455 S
Gd0    O7      2.248   1_455 S
Gd0    O11     2.250   1_556 S
Gd1    O2      2.226   .     S
Gd1    O13     2.229   .     S
Gd1    O5      2.253   1_654 S
Gd1    O10     2.227   1_655 S
Gd1    O14     2.252   1_554 S
Gd1    O15     2.248   1_655 S
O2     C16     1.273   .     A
O3     Gd0     2.227   1_655 S
O3     C16     1.275   1_566 A
O4     Gd0     2.223   1_655 S
O4     C12     1.265   1_565 A
O5     Gd1     2.253   1_456 S
O5     C12     1.275   1_455 A
O6     C9      1.270   .     A
O7     Gd0     2.248   1_655 S
O7     C9      1.261   1_655 A
O8     C19     1.274   .     A
C9     O7      1.261   1_455 A
C9     C44     1.495   1_456 S
O10    Gd1     2.227   1_455 S
O10    C19     1.276   1_544 A
O11    C18     1.276   .     A
O11    Gd0     2.250   1_554 S
C12    O4      1.265   1_545 A
C12    O5      1.275   1_655 A
C12    C120    1.497   1_655 S
O13    C18     1.267   1_645 A
O14    Gd1     2.252   1_556 S
O14    C17     1.270   1_556 A
O15    Gd1     2.248   1_455 S
O15    C17     1.260   1_455 A
C16    C86     1.497   .     S
C16    O3      1.275   1_544 A
C17    O14     1.270   1_554 A
C17    O15     1.260   1_655 A
C17    C52     1.496   1_654 S
C18    O13     1.267   1_465 A
C18    C112    1.492   1_465 S
C19    C78     1.502   .     S
C19    O10     1.276   1_566 A
C20    C50     1.404   .     A
C20    C51     1.482   .     S
C20    C24     1.407   1_456 A
C21    H38     1.082   .     S
C21    C50     1.397   .     A
C21    C53     1.408   .     A
H22    C42     1.084   .     S
C23    C24     1.398   .     A
C23    H40     1.084   .     S
C23    C53     1.406   1_654 A
C24    H39     1.083   .     S
C24    C20     1.407   1_654 A
N25    H34     1.044   1_554 S
N25    C43     1.436   1_455 S
N25    C44     1.461   1_455 S
N26    C51     1.373   .     S
N26    C52     1.464   .     S
N26    H41     1.045   1_456 S
O27    C43     1.221   .     D
O28    C51     1.219   .     D
H29    C44     1.110   .     S
H30    C44     1.112   1_455 S
H31    C47     1.082   .     S
H32    C48     1.081   .     S
H33    C49     1.084   .     S
H34    N25     1.044   1_556 S
H35    C50     1.084   .     S
H36    C52     1.111   .     S
H37    C52     1.108   1_655 S
H41    N26     1.045   1_654 S
C42    C46     1.405   .     A
C42    C47     1.398   .     A
C43    C46     1.483   .     S
C43    N25     1.436   1_655 S
C44    N25     1.461   1_655 S
C44    H30     1.112   1_655 S
C44    C9      1.495   1_654 S
C45    C47     1.407   .     A
C45    C49     1.407   1_654 A
C45    C53     1.488   1_654 S
C46    C48     1.406   1_654 A
C48    C49     1.396   .     A
C48    C46     1.406   1_456 A
C49    C45     1.407   1_456 A
C52    H37     1.108   1_455 S
C52    C17     1.496   1_456 S
C53    C23     1.406   1_456 A
C53    C45     1.488   1_456 S
C54    C84     1.404   .     A
C54    C85     1.482   .     S
C54    C58     1.406   1_544 A
C55    H72     1.079   .     S
C55    C84     1.396   .     A
C55    C87     1.405   .     A
H56    C76     1.083   .     S
C57    C58     1.399   .     A
C57    H74     1.081   .     S
C57    C87     1.407   1_566 A
C58    H73     1.080   .     S
C58    C54     1.406   1_566 A
N59    C77     1.372   .     S
N59    C78     1.464   .     S
N59    H68     1.046   1_566 S
N60    H75     1.044   1_545 S
N60    C85     1.433   1_556 S
N60    C86     1.462   1_556 S
O61    C77     1.221   .     D
O62    C85     1.221   .     D
H63    C78     1.110   .     S
H64    C78     1.112   1_554 S
H65    C81     1.083   .     S
H66    C82     1.081   .     S
H67    C83     1.082   .     S
H68    N59     1.046   1_544 S
H69    C84     1.083   .     S
H70    C86     1.111   .     S
H71    C86     1.109   1_556 S
H75    N60     1.044   1_565 S
C76    C80     1.402   .     A
C76    C81     1.400   .     A
C77    C80     1.481   .     S
C78    H64     1.112   1_556 S
C79    C81     1.406   .     A
C79    C83     1.405   1_566 A
C79    C87     1.489   1_566 S
C80    C82     1.404   1_566 A
C82    C83     1.396   .     A
C82    C80     1.404   1_544 A
C83    C79     1.405   1_544 A
C85    N60     1.433   1_554 S
C86    N60     1.462   1_554 S
C86    H71     1.109   1_554 S
C87    C57     1.407   1_544 A
C87    C79     1.489   1_544 S
C88    C118    1.407   .     A
C88    C119    1.490   .     S
C88    C92     1.407   1_445 A
C89    H106    1.082   .     S
C89    C118    1.399   .     A
C89    C121    1.409   1_455 A
H90    C110    1.083   .     S
C91    C92     1.398   .     A
C91    H108    1.082   .     S
C91    C121    1.409   1_565 A
C92    H107    1.081   .     S
C92    C88     1.407   1_665 A
N93    H102    1.045   .     S
N93    C112    1.459   .     S
N93    C111    1.436   1_545 S
N94    C119    1.375   .     S
N94    C120    1.465   .     S
N94    H109    1.044   1_545 S
O95    C111    1.220   .     D
O96    C119    1.221   .     D
H97    C112    1.112   1_565 S
H98    C112    1.110   .     S
H99    C115    1.079   .     S
H100   C116    1.083   .     S
H101   C117    1.080   .     S
H103   C118    1.084   .     S
H104   C120    1.111   .     S
H105   C120    1.109   1_565 S
H109   N94     1.044   1_565 S
C110   C114    1.401   .     A
C110   C115    1.397   .     A
C111   C114    1.480   .     S
C111   N93     1.436   1_565 S
C112   H97     1.112   1_545 S
C112   C18     1.492   1_645 S
C113   C115    1.409   .     A
C113   C117    1.408   1_665 A
C113   C121    1.497   1_565 S
C114   C116    1.404   1_665 A
C116   C117    1.396   .     A
C116   C114    1.404   1_445 A
C117   C113    1.408   1_445 A
C120   H105    1.109   1_545 S
C120   C12     1.497   1_455 S
C121   C89     1.409   1_655 A
C121   C91     1.409   1_545 A
C121   C113    1.497   1_545 S
