data_pcu+N123+E229
_audit_creation_date              2023-11-17
_audit_creation_method            'Materials Studio'
_symmetry_space_group_name_H-M    'P1'
_symmetry_Int_Tables_number       1
_symmetry_cell_setting            triclinic
loop_
_symmetry_equiv_pos_as_xyz
  x,y,z
_cell_length_a                    26.3508
_cell_length_b                    18.2260
_cell_length_c                    19.7999
_cell_angle_alpha                 55.7908
_cell_angle_beta                  113.1859
_cell_angle_gamma                 103.3180
loop_
_atom_site_label
_atom_site_type_symbol
_atom_site_fract_x
_atom_site_fract_y
_atom_site_fract_z
_atom_site_U_iso_or_equiv
_atom_site_adp_type
_atom_site_occupancy
Ce0    Ce    0.06889   0.93997   1.01747   0.00000  Uiso   1.00
Ce1    Ce    0.94657  -0.00059   0.01818   0.00000  Uiso   1.00
C2     C     0.96955   1.07973   0.86240   0.00000  Uiso   1.00
C3     C     0.16011   1.04264   0.99977   0.00000  Uiso   1.00
C4     C     0.93888   0.87287  -0.04807   0.00000  Uiso   1.00
C5     C     0.02600  -0.15152   0.15551   0.00000  Uiso   1.00
C6     C     0.84268   0.00575   0.01097   0.00000  Uiso   1.00
C7     C     0.03081   0.10989   1.03979   0.00000  Uiso   1.00
O8     O     0.92441   0.07045   0.86792   0.00000  Uiso   1.00
O9     O     0.00855   1.05548   0.94090   0.00000  Uiso   1.00
O10    O     0.12002   1.04667   0.93524   0.00000  Uiso   1.00
O11    O     0.15249   0.99003   0.07274   0.00000  Uiso   1.00
O12    O    -0.01331   0.89873  -0.05756   0.00000  Uiso   1.00
O13    O     0.92255   0.88121   0.00022   0.00000  Uiso   1.00
O14    O     0.04195   0.81471   0.13049   0.00000  Uiso   1.00
O15    O     1.03198  -0.06270   0.10874   0.00000  Uiso   1.00
O16    O     0.87987  -0.04127   0.08109   0.00000  Uiso   1.00
O17    O     0.85839   0.05146   0.94525   0.00000  Uiso   1.00
O18    O     0.98215   0.11476   1.03586   0.00000  Uiso   1.00
O19    O     0.03928   0.04693   1.03194   0.00000  Uiso   1.00
C20    C     0.87898   0.75933   0.82528   0.00000  Uiso   1.00
C21    C     0.82303   0.78176   0.79115   0.00000  Uiso   1.00
C22    C     0.80539   0.83175   0.81129   0.00000  Uiso   1.00
C23    C     0.84314   0.85930   0.86579   0.00000  Uiso   1.00
C24    C     0.89914   0.83840   0.89933   0.00000  Uiso   1.00
C25    C     0.91684   0.78821   0.87927   0.00000  Uiso   1.00
C26    C     0.89825   0.70304   0.80667   0.00000  Uiso   1.00
H27    H     0.79301   0.75919   0.75057   0.00000  Uiso   1.00
H28    H     0.76235   0.84793   0.78610   0.00000  Uiso   1.00
H29    H     0.82830   0.89646   0.88190   0.00000  Uiso   1.00
H30    H    -0.04001   0.77131   0.90571   0.00000  Uiso   1.00
H31    H     0.86482   0.69395   0.75599   0.00000  Uiso   1.00
H32    H    -0.06691   0.73806   0.78102   0.00000  Uiso   1.00
C33    C     0.11954   0.26394   0.11184   0.00000  Uiso   1.00
C34    C     1.08350   0.19476   0.10986   0.00000  Uiso   1.00
C35    C     1.13071   0.28260   0.18160   0.00000  Uiso   1.00
C36    C     1.05721   0.38831   0.10882   0.00000  Uiso   1.00
C37    C     1.04509   0.48224   1.02969   0.00000  Uiso   1.00
C38    C     0.14457   0.31632   0.04784   0.00000  Uiso   1.00
C39    C     0.13233   0.30125  -0.01878   0.00000  Uiso   1.00
C40    C     0.07254   0.17733   0.04491   0.00000  Uiso   1.00
H41    H     0.17219   0.37041   0.04779   0.00000  Uiso   1.00
H42    H     0.14978   0.34491  -0.07061   0.00000  Uiso   1.00
H43    H     0.08549   0.22446  -0.07517   0.00000  Uiso   1.00
H44    H     1.06290   0.15513   0.15804   0.00000  Uiso   1.00
H45    H     0.17533   0.27357   0.21899   0.00000  Uiso   1.00
C46    C     0.96910   0.59026   0.90702   0.00000  Uiso   1.00
C47    C     0.98368   0.50235  -0.00659   0.00000  Uiso   1.00
H48    H     1.03387   0.34065   0.08868   0.00000  Uiso   1.00
H49    H     0.06925   0.53077   1.04804   0.00000  Uiso   1.00
H50    H     1.05877   0.48863   0.98009   0.00000  Uiso   1.00
H51    H     1.04320   0.37978   0.15877   0.00000  Uiso   1.00
H52    H     1.10801   0.23559   0.22753   0.00000  Uiso   1.00
H53    H    -0.00048   0.64262   0.91191   0.00000  Uiso   1.00
H54    H     0.97046   0.58217   0.85610   0.00000  Uiso   1.00
N55    N     0.91345   0.61550   0.88566   0.00000  Uiso   1.00
N56    N     0.11688   0.37436   0.14399   0.00000  Uiso   1.00
C57    C     0.09617   0.23237  -0.02074   0.00000  Uiso   1.00
C58    C     0.30878   0.08449   0.00732   0.00000  Uiso   1.00
C59    C     0.31592   0.17268  -0.01226   0.00000  Uiso   1.00
C60    C     0.27220   0.21760  -0.02853   0.00000  Uiso   1.00
C61    C     0.22056   0.17620  -0.02791   0.00000  Uiso   1.00
C62    C     0.21300   0.08844  -0.00713   0.00000  Uiso   1.00
C63    C     0.25689   0.04304   0.00962   0.00000  Uiso   1.00
C64    C     0.35492   0.03189   0.02699   0.00000  Uiso   1.00
H65    H     0.35527   0.20688  -0.01395   0.00000  Uiso   1.00
H66    H     0.27740   0.28583  -0.04504   0.00000  Uiso   1.00
H67    H     0.18648   0.21267  -0.04387   0.00000  Uiso   1.00
H68    H     0.25095   0.97495   0.02541   0.00000  Uiso   1.00
H69    H     0.36268  -0.02678   0.09401   0.00000  Uiso   1.00
H70    H     0.34096   1.00873  -0.01872   0.00000  Uiso   1.00
C71    C     0.71251   1.04378   1.02375   0.00000  Uiso   1.00
C72    C     0.76880   0.04084   1.03736   0.00000  Uiso   1.00
C73    C     0.69440   0.09093   1.05327   0.00000  Uiso   1.00
C74    C     0.59991   0.09132   1.04429   0.00000  Uiso   1.00
C75    C     0.55396   0.03192   0.07856   0.00000  Uiso   1.00
C76    C     0.67292   1.00732   0.97733   0.00000  Uiso   1.00
C77    C     0.68932   0.96769   0.94596   0.00000  Uiso   1.00
C78    C     0.78500   1.00315   1.00381   0.00000  Uiso   1.00
H79    H     0.62924   1.00952   0.96535   0.00000  Uiso   1.00
H80    H     0.65871   0.93896   0.91141   0.00000  Uiso   1.00
H81    H     0.75887   0.93295   0.93706   0.00000  Uiso   1.00
H82    H     0.79960   0.07050   0.07088   0.00000  Uiso   1.00
H83    H     0.68116   1.15916   0.99706   0.00000  Uiso   1.00
C84    C     0.45256   0.02789   0.05825   0.00000  Uiso   1.00
C85    C     0.50133   0.08555   0.03210   0.00000  Uiso   1.00
H86    H     0.60697   0.14853   1.05330   0.00000  Uiso   1.00
H87    H     0.54618   0.97611   0.06749   0.00000  Uiso   1.00
H88    H     0.56662   0.00444   0.14906   0.00000  Uiso   1.00
H89    H     0.58683   0.11666   0.97404   0.00000  Uiso   1.00
H90    H     0.72977   0.09896   1.10299   0.00000  Uiso   1.00
H91    H     0.44271   0.97964   0.03718   0.00000  Uiso   1.00
H92    H     0.46357  -0.00848   0.12969   0.00000  Uiso   1.00
N93    N     0.40550   0.08531   0.01756   0.00000  Uiso   1.00
N94    N     0.65069   1.04018   1.09116   0.00000  Uiso   1.00
C95    C     0.74536   0.96591   0.95884   0.00000  Uiso   1.00
C96    C     0.98615   0.78027   0.34593   0.00000  Uiso   1.00
C97    C     0.94254   0.72058   0.34054   0.00000  Uiso   1.00
C98    C     0.92692   0.70219   0.27534   0.00000  Uiso   1.00
C99    C     0.95485   0.74264   0.21543   0.00000  Uiso   1.00
C100   C     0.99849   0.80219   0.22049   0.00000  Uiso   1.00
C101   C     0.01324   0.82244   0.28430   0.00000  Uiso   1.00
C102   C     0.00623   0.79363   0.42081   0.00000  Uiso   1.00
H103   H     0.92117   0.68742   0.38767   0.00000  Uiso   1.00
H104   H     0.89299   0.65697   0.27119   0.00000  Uiso   1.00
H105   H     0.94059   0.73164   0.16206   0.00000  Uiso   1.00
H106   H     0.04685   0.86878   0.28785   0.00000  Uiso   1.00
H107   H     0.01594   0.72766   0.48194   0.00000  Uiso   1.00
H108   H     0.04467   0.83444   0.41960   0.00000  Uiso   1.00
C109   C     0.95867   0.10842   0.65294   0.00000  Uiso   1.00
C110   C     0.94565   0.08509   0.72496   0.00000  Uiso   1.00
C111   C     0.92446   0.07448   0.59442   0.00000  Uiso   1.00
C112   C     0.93002  -0.01354   0.54136   0.00000  Uiso   1.00
C113   C    -0.03357   0.92138   0.55605   0.00000  Uiso   1.00
C114   C     0.00597   0.16041   0.63814   0.00000  Uiso   1.00
C115   C     0.03991   0.18847   0.69460   0.00000  Uiso   1.00
C116   C    -0.01973   0.11197   0.78240   0.00000  Uiso   1.00
H117   H     0.01667   0.17894   0.58293   0.00000  Uiso   1.00
H118   H     0.07612   0.22889   0.68239   0.00000  Uiso   1.00
H119   H     0.05390   0.18632   0.80975   0.00000  Uiso   1.00
H120   H     0.90998   0.04323   0.73826   0.00000  Uiso   1.00
H121   H     0.91319   0.13159   0.52637   0.00000  Uiso   1.00
C122   C    -0.01662   0.84530   0.49305   0.00000  Uiso   1.00
C123   C     0.94471  -0.09464   0.48140   0.00000  Uiso   1.00
H124   H     0.88916  -0.04522   0.54591   0.00000  Uiso   1.00
H125   H     0.00925   0.94865   0.56192   0.00000  Uiso   1.00
H126   H    -0.03246   0.85751   0.61766   0.00000  Uiso   1.00
H127   H     0.92430   0.04674   0.47581   0.00000  Uiso   1.00
H128   H     0.88592   0.04223   0.60936   0.00000  Uiso   1.00
H129   H     0.02571   0.87514   0.50155   0.00000  Uiso   1.00
H130   H    -0.01604   0.77883   0.55171   0.00000  Uiso   1.00
N131   N     0.96426   0.83763   0.41693   0.00000  Uiso   1.00
N132   N     0.95675   0.00958   0.60751   0.00000  Uiso   1.00
C133   C     0.02716   0.16421   0.76662   0.00000  Uiso   1.00
loop_
_geom_bond_atom_site_label_1
_geom_bond_atom_site_label_2
_geom_bond_distance
_geom_bond_site_symmetry_2
_ccdc_geom_bond_type
Ce0    O9      2.305   .     S
Ce0    O10     2.282   .     S
Ce0    O11     2.276   1_556 S
Ce0    O12     2.332   1_556 S
Ce0    O14     2.342   1_556 S
Ce0    O15     2.340   1_466 S
Ce0    O19     2.449   1_565 S
Ce1    O15     2.297   .     S
Ce1    O16     2.297   .     S
Ce1    O8      2.349   1_554 S
Ce1    O9      2.344   1_644 S
Ce1    O13     2.286   1_545 S
Ce1    O17     2.284   1_554 S
Ce1    O18     2.254   1_554 S
C2     O8      1.202   1_565 D
C2     O9      1.359   1_655 S
C2     C116    1.471   1_665 S
C3     O10     1.273   .     A
C3     O11     1.276   1_556 A
C3     C62     1.464   1_566 S
C4     O13     1.281   .     A
C4     O12     1.288   1_655 A
C4     C24     1.466   1_554 S
C5     O14     1.195   1_545 D
C5     O15     1.347   1_455 S
C5     C100    1.458   1_445 S
C6     O16     1.265   .     A
C6     O17     1.267   1_554 A
C6     C78     1.462   1_544 S
C7     O19     1.318   .     A
C7     O18     1.274   1_455 A
C7     C40     1.470   1_556 S
O8     Ce1     2.349   1_556 S
O8     C2      1.202   1_545 D
O9     Ce1     2.344   1_466 S
O9     C2      1.359   1_455 S
O11    Ce0     2.276   1_554 S
O11    C3      1.276   1_554 A
O12    Ce0     2.332   1_554 S
O12    C4      1.288   1_455 A
O13    Ce1     2.286   1_565 S
O14    Ce0     2.342   1_554 S
O14    C5      1.195   1_565 D
O15    Ce0     2.340   1_644 S
O15    C5      1.347   1_655 S
O17    Ce1     2.284   1_556 S
O17    C6      1.267   1_556 A
O18    Ce1     2.254   1_556 S
O18    C7      1.274   1_655 A
O19    Ce0     2.449   1_545 S
C20    C21     1.407   .     A
C20    C25     1.402   .     A
C20    C26     1.503   .     S
C21    C22     1.398   .     A
C21    H27     1.078   .     S
C22    C23     1.393   .     A
C22    H28     1.080   .     S
C23    C24     1.402   .     A
C23    H29     1.085   .     S
C24    C25     1.401   .     A
C24    C4      1.466   1_556 S
C25    H30     1.083   1_655 S
C26    H31     1.111   .     S
C26    N55     1.465   .     S
C26    H32     1.114   1_655 S
H30    C25     1.083   1_455 S
H32    C26     1.114   1_455 S
C33    C38     1.400   .     A
C33    C34     1.403   1_455 A
C33    C35     1.507   1_455 S
C34    H44     1.086   .     S
C34    C33     1.403   1_655 A
C34    C40     1.401   1_655 A
C35    H52     1.111   .     S
C35    C33     1.507   1_655 S
C35    H45     1.106   1_655 S
C35    N56     1.467   1_655 S
C36    H48     1.114   .     S
C36    H51     1.108   .     S
C36    C37     1.526   1_554 S
C36    N56     1.465   1_655 S
C37    H50     1.113   .     S
C37    C36     1.526   1_556 S
C37    C47     1.527   1_556 S
C37    H49     1.113   1_655 S
C38    C39     1.397   .     A
C38    H41     1.082   .     S
C39    H42     1.087   .     S
C39    C57     1.400   .     A
C40    C57     1.403   .     A
C40    C34     1.401   1_455 A
C40    C7      1.470   1_554 S
H43    C57     1.086   .     S
H45    C35     1.106   1_455 S
C46    H54     1.112   .     S
C46    N55     1.465   .     S
C46    C47     1.525   1_556 S
C46    H53     1.119   1_655 S
C47    C37     1.527   1_554 S
C47    C46     1.525   1_554 S
H49    C37     1.113   1_455 S
H53    C46     1.119   1_455 S
N56    C35     1.467   1_455 S
N56    C36     1.465   1_455 S
C58    C59     1.410   .     A
C58    C63     1.406   .     A
C58    C64     1.514   .     S
C59    C60     1.395   .     A
C59    H65     1.082   .     S
C60    C61     1.397   .     A
C60    H66     1.082   .     S
C61    C62     1.395   .     A
C61    H67     1.079   .     S
C62    C63     1.401   .     A
C62    C3      1.464   1_544 S
C63    H68     1.084   1_545 S
C64    H69     1.112   .     S
C64    N93     1.467   .     S
C64    H70     1.108   1_545 S
H68    C63     1.084   1_565 S
H70    C64     1.108   1_565 S
C71    C76     1.410   .     A
C71    C72     1.407   1_565 A
C71    C73     1.510   1_565 S
C72    C71     1.407   1_545 A
C72    C78     1.402   1_545 A
C72    H82     1.081   1_556 S
C73    H90     1.112   .     S
C73    C71     1.510   1_545 S
C73    H83     1.116   1_545 S
C73    N94     1.468   1_545 S
C74    H86     1.117   .     S
C74    H89     1.114   .     S
C74    C75     1.522   1_556 S
C74    N94     1.464   1_545 S
C75    C85     1.528   .     S
C75    H88     1.111   .     S
C75    C74     1.522   1_554 S
C75    H87     1.115   1_545 S
C76    C77     1.398   .     A
C76    H79     1.086   .     S
C77    H80     1.080   .     S
C77    C95     1.401   .     A
C78    C95     1.402   .     A
C78    C72     1.402   1_565 A
C78    C6      1.462   1_566 S
H81    C95     1.088   .     S
H82    C72     1.081   1_554 S
H83    C73     1.116   1_565 S
C84    C85     1.521   .     S
C84    H92     1.112   .     S
C84    N93     1.465   .     S
C84    H91     1.112   1_545 S
H87    C75     1.115   1_565 S
H91    C84     1.112   1_565 S
N94    C73     1.468   1_565 S
N94    C74     1.464   1_565 S
C96    C97     1.405   .     A
C96    C101    1.403   1_655 A
C96    C102    1.505   1_655 S
C97    C98     1.398   .     A
C97    H103    1.084   .     S
C98    C99     1.395   .     A
C98    H104    1.079   .     S
C99    C100    1.403   .     A
C99    H105    1.090   .     S
C100   C101    1.398   1_655 A
C100   C5      1.458   1_665 S
C101   H106    1.084   .     S
C101   C96     1.403   1_455 A
C101   C100    1.398   1_455 A
C102   H107    1.112   .     S
C102   H108    1.110   .     S
C102   C96     1.505   1_455 S
C102   N131    1.464   1_455 S
C109   C110    1.403   .     A
C109   C111    1.505   .     S
C109   C114    1.403   1_655 A
C110   H120    1.083   .     S
C110   C116    1.403   1_655 A
C111   H121    1.112   .     S
C111   H128    1.109   .     S
C111   N132    1.462   .     S
C112   H124    1.110   .     S
C112   H127    1.110   .     S
C112   N132    1.465   .     S
C112   C113    1.526   1_645 S
C113   H125    1.112   .     S
C113   H126    1.111   .     S
C113   C112    1.526   1_465 S
C113   C123    1.530   1_465 S
C114   C115    1.398   .     A
C114   H117    1.083   .     S
C114   C109    1.403   1_455 A
C115   H118    1.081   .     S
C115   C133    1.394   .     A
C116   C133    1.399   .     A
C116   C110    1.403   1_455 A
C116   C2      1.471   1_445 S
H119   C133    1.082   .     S
C122   H129    1.115   .     S
C122   H130    1.109   .     S
C122   C123    1.528   1_465 S
C122   N131    1.467   1_455 S
C123   C113    1.530   1_645 S
C123   C122    1.528   1_645 S
N131   C102    1.464   1_655 S
N131   C122    1.467   1_655 S
