data_pcu+N155+E191
_audit_creation_date              2023-11-17
_audit_creation_method            'Materials Studio'
_symmetry_space_group_name_H-M    'P1'
_symmetry_Int_Tables_number       1
_symmetry_cell_setting            triclinic
loop_
_symmetry_equiv_pos_as_xyz
  x,y,z
_cell_length_a                    17.1448
_cell_length_b                    17.8017
_cell_length_c                    20.2217
_cell_angle_alpha                 90.6362
_cell_angle_beta                  89.2277
_cell_angle_gamma                 89.6101
loop_
_atom_site_label
_atom_site_type_symbol
_atom_site_fract_x
_atom_site_fract_y
_atom_site_fract_z
_atom_site_U_iso_or_equiv
_atom_site_adp_type
_atom_site_occupancy
C0     C     0.00001   0.00191   0.19897   0.00000  Uiso   1.00
Ho1    Ho   -0.00045   0.00093   0.07054   0.00000  Uiso   1.00
C2     C     1.00010   0.99831   0.80126   0.00000  Uiso   1.00
Ho3    Ho    1.00059   0.99938   0.92969   0.00000  Uiso   1.00
O4     O     0.06286   0.00162   0.16368   0.00000  Uiso   1.00
O5     O     0.93749   0.00189   0.16515   0.00000  Uiso   1.00
O6     O     0.11936   0.00100   0.10615   0.00000  Uiso   1.00
O7     O     0.09453   0.99996   0.99971   0.00000  Uiso   1.00
C8     C     0.14921   0.00040   1.05048   0.00000  Uiso   1.00
C9     C     0.85093   0.99992  -0.05025   0.00000  Uiso   1.00
O10    O     0.00109   0.87808   0.05666   0.00000  Uiso   1.00
O11    O     1.00012   0.87679   0.94315   0.00000  Uiso   1.00
O12    O     0.93726   0.99865   0.83657   0.00000  Uiso   1.00
O13    O     0.06263   0.99837   0.83507   0.00000  Uiso   1.00
O14    O     0.88079   0.99927   0.89409   0.00000  Uiso   1.00
O15    O     0.90561   0.00036   0.00052   0.00000  Uiso   1.00
O16    O     0.99900   0.12222   0.94358   0.00000  Uiso   1.00
O17    O     0.00009   0.12352   0.05708   0.00000  Uiso   1.00
C18    C     0.99946   0.15733   1.00036   0.00000  Uiso   1.00
C19    C     0.00071   0.84298  -0.00013   0.00000  Uiso   1.00
Ni20   Ni    0.00033   0.50014   0.00005   0.00000  Uiso   1.00
C21    C     1.00087   0.75967  -0.00014   0.00000  Uiso   1.00
C22    C     0.99783   0.71856   0.94018   0.00000  Uiso   1.00
C23    C     0.99773   0.64011   0.94140   0.00000  Uiso   1.00
C24    C     0.00366   0.64162   0.05844   0.00000  Uiso   1.00
C25    C     0.00380   0.72009   0.05957   0.00000  Uiso   1.00
H26    H     0.98930   0.25095   0.89377   0.00000  Uiso   1.00
H27    H     0.00959   0.25371   0.10692   0.00000  Uiso   1.00
H28    H     0.00986   0.39208   0.10422   0.00000  Uiso   1.00
H29    H     0.99017   0.38936   0.89617   0.00000  Uiso   1.00
N30    N     0.00003   0.39677   1.00018   0.00000  Uiso   1.00
N31    N     1.00065   0.60351  -0.00006   0.00000  Uiso   1.00
H32    H     0.99543   0.74658   0.89299   0.00000  Uiso   1.00
H33    H     0.99530   0.60822   0.89562   0.00000  Uiso   1.00
H34    H     0.00590   0.61091   0.10425   0.00000  Uiso   1.00
H35    H     0.00622   0.74930   0.10674   0.00000  Uiso   1.00
C36    C    -0.00058   0.24062   1.00036   0.00000  Uiso   1.00
C37    C     0.00514   0.28174   0.05985   0.00000  Uiso   1.00
C38    C     0.00539   0.36018   0.05859   0.00000  Uiso   1.00
C39    C     0.99441   0.35866   0.94187   0.00000  Uiso   1.00
C40    C     0.99399   0.28019   0.94078   0.00000  Uiso   1.00
Ni41   Ni    0.50007   0.00032   0.00009   0.00000  Uiso   1.00
C42    C     0.23419   0.00025   1.03855   0.00000  Uiso   1.00
C43    C     0.28616   0.00019   0.09158   0.00000  Uiso   1.00
C44    C     0.36645   0.00017   0.07880   0.00000  Uiso   1.00
C45    C     0.34495   1.00033   0.96319   0.00000  Uiso   1.00
C46    C     0.26425   1.00032   0.97371   0.00000  Uiso   1.00
H47    H     0.77425   0.00098   0.06862   0.00000  Uiso   1.00
H48    H     0.73518   0.99931   0.85792   0.00000  Uiso   1.00
H49    H     0.59323   0.99950   0.88082   0.00000  Uiso   1.00
H50    H     0.63146   0.00116   0.08688   0.00000  Uiso   1.00
N51    N     0.60612   1.00034   0.98475   0.00000  Uiso   1.00
N52    N     0.39402   0.00027   0.01545   0.00000  Uiso   1.00
H53    H     0.26500   0.00021   0.14230   0.00000  Uiso   1.00
H54    H     0.40695   0.00013   0.11936   0.00000  Uiso   1.00
H55    H     0.36864   1.00041   0.91334   0.00000  Uiso   1.00
H56    H     0.22585   1.00044   0.93162   0.00000  Uiso   1.00
C57    C     0.76595   1.00013  -0.03833   0.00000  Uiso   1.00
C58    C     0.71400   0.99974   0.90863   0.00000  Uiso   1.00
C59    C     0.63371   0.99983   0.92140   0.00000  Uiso   1.00
C60    C     0.65516   0.00079   0.03702   0.00000  Uiso   1.00
C61    C     0.73587   0.00068   0.02652   0.00000  Uiso   1.00
Ni62   Ni   -0.00003  -0.00030   0.50011   0.00000  Uiso   1.00
C63    C    -0.00002   0.00188   0.27192   0.00000  Uiso   1.00
C64    C     0.92947   0.00103   0.30795   0.00000  Uiso   1.00
C65    C     0.93083   0.00038   0.37701   0.00000  Uiso   1.00
C66    C     0.06913   1.00147   0.37547   0.00000  Uiso   1.00
C67    C     0.07050   1.00208   0.30638   0.00000  Uiso   1.00
H68    H     0.87401  -0.00173   0.72006   0.00000  Uiso   1.00
H69    H     0.12615   0.99811   0.71709   0.00000  Uiso   1.00
H70    H     0.12326   0.99888   0.59500   0.00000  Uiso   1.00
H71    H     0.87674  -0.00115   0.59790   0.00000  Uiso   1.00
N72    N     0.00000   0.99886   0.59111   0.00000  Uiso   1.00
N73    N     0.99998   0.00058   0.40912   0.00000  Uiso   1.00
H74    H     0.87393   0.00084   0.28306   0.00000  Uiso   1.00
H75    H     0.87673  -0.00040   0.40515   0.00000  Uiso   1.00
H76    H     0.12322   1.00166   0.40241   0.00000  Uiso   1.00
H77    H     0.12604   1.00270   0.28025   0.00000  Uiso   1.00
C78    C     1.00009   0.99816   0.72831   0.00000  Uiso   1.00
C79    C     0.07059   0.99826   0.69223   0.00000  Uiso   1.00
C80    C     0.06918   0.99865   0.62318   0.00000  Uiso   1.00
C81    C     0.93086  -0.00131   0.62480   0.00000  Uiso   1.00
C82    C     0.92954  -0.00165   0.69389   0.00000  Uiso   1.00
loop_
_geom_bond_atom_site_label_1
_geom_bond_atom_site_label_2
_geom_bond_distance
_geom_bond_site_symmetry_2
_ccdc_geom_bond_type
C0     O4      1.284   .     A
C0     C63     1.475   .     S
C0     O5      1.279   1_455 A
Ho1    O4      2.186   .     S
Ho1    O6      2.186   .     S
Ho1    O17     2.202   .     S
Ho1    O5      2.176   1_455 S
Ho1    O7      2.154   1_544 S
Ho1    O10     2.202   1_545 S
Ho1    O15     2.159   1_455 S
C2     O12     1.284   .     A
C2     C78     1.475   .     S
C2     O13     1.279   1_655 A
Ho3    O11     2.202   .     S
Ho3    O12     2.186   .     S
Ho3    O14     2.186   .     S
Ho3    O7      2.159   1_655 S
Ho3    O13     2.176   1_655 S
Ho3    O15     2.154   1_566 S
Ho3    O16     2.202   1_565 S
O5     C0      1.279   1_655 A
O5     Ho1     2.176   1_655 S
O6     C8      1.230   1_554 D
O7     Ho1     2.154   1_566 S
O7     Ho3     2.159   1_455 S
O7     C8      1.400   1_565 S
C8     C42     1.474   .     S
C8     O6      1.230   1_556 D
C8     O7      1.400   1_545 S
C9     C57     1.474   .     S
C9     O14     1.230   1_554 D
C9     O15     1.400   1_565 S
O10    C19     1.301   .     A
O10    Ho1     2.202   1_565 S
O11    C19     1.301   1_656 A
O13    C2      1.279   1_455 A
O13    Ho3     2.176   1_455 S
O14    C9      1.230   1_556 D
O15    Ho1     2.159   1_655 S
O15    Ho3     2.154   1_544 S
O15    C9      1.400   1_545 S
O16    C18     1.301   .     A
O16    Ho3     2.202   1_545 S
O17    C18     1.301   1_454 A
C18    O17     1.301   1_656 A
C18    C36     1.483   1_655 S
C19    O11     1.301   1_454 A
C19    C21     1.483   1_455 S
Ni20   N30     1.840   1_554 S
Ni20   N31     1.840   1_455 S
C21    C22     1.406   1_554 A
C21    C25     1.406   1_655 A
C21    C19     1.483   1_655 S
C22    C23     1.397   .     A
C22    H32     1.083   .     S
C22    C21     1.406   1_556 A
C23    H33     1.082   .     S
C23    N31     1.359   1_556 A
C24    C25     1.397   .     A
C24    H34     1.082   .     S
C24    N31     1.359   1_455 A
C25    H35     1.083   .     S
C25    C21     1.406   1_455 A
H26    C40     1.083   .     S
H27    C37     1.083   .     S
H28    C38     1.082   .     S
H29    C39     1.082   .     S
N30    Ni20    1.840   1_556 S
N30    C38     1.359   1_556 A
N30    C39     1.359   1_455 A
N31    Ni20    1.840   1_655 S
N31    C23     1.359   1_554 A
N31    C24     1.359   1_655 A
C36    C37     1.406   1_556 A
C36    C40     1.406   1_455 A
C36    C18     1.483   1_455 S
C37    C38     1.397   .     A
C37    C36     1.406   1_554 A
C38    N30     1.359   1_554 A
C39    C40     1.397   .     A
C39    N30     1.359   1_655 A
C40    C36     1.406   1_655 A
Ni41   N52     1.840   .     S
Ni41   N51     1.840   1_544 S
C42    C43     1.403   1_556 A
C42    C46     1.402   1_545 A
C43    C44     1.397   .     A
C43    H53     1.083   .     S
C43    C42     1.403   1_554 A
C44    N52     1.360   .     A
C44    H54     1.082   .     S
C45    C46     1.397   .     A
C45    H55     1.082   .     S
C45    N52     1.359   1_566 A
C46    H56     1.083   .     S
C46    C42     1.402   1_565 A
H47    C61     1.083   .     S
H48    C58     1.083   .     S
H49    C59     1.082   .     S
H50    C60     1.082   .     S
N51    C59     1.360   .     A
N51    Ni41    1.840   1_566 S
N51    C60     1.360   1_566 A
N52    C45     1.359   1_544 A
C57    C58     1.403   1_554 A
C57    C61     1.402   1_565 A
C58    C59     1.397   .     A
C58    C57     1.403   1_556 A
C60    C61     1.397   .     A
C60    N51     1.360   1_544 A
C61    C57     1.402   1_545 A
Ni62   N72     1.840   1_545 S
Ni62   N73     1.840   1_455 S
C63    C64     1.403   1_455 A
C63    C67     1.404   1_545 A
C64    C65     1.397   .     A
C64    H74     1.083   .     S
C64    C63     1.403   1_655 A
C65    N73     1.359   .     A
C65    H75     1.082   .     S
C66    C67     1.397   .     A
C66    H76     1.082   .     S
C66    N73     1.359   1_465 A
C67    H77     1.083   .     S
C67    C63     1.404   1_565 A
H68    C82     1.083   .     S
H69    C79     1.083   .     S
H70    C80     1.082   .     S
H71    C81     1.082   .     S
N72    C80     1.359   .     A
N72    Ni62    1.840   1_565 S
N72    C81     1.359   1_465 A
N73    Ni62    1.840   1_655 S
N73    C66     1.359   1_645 A
C78    C79     1.403   1_655 A
C78    C82     1.404   1_565 A
C79    C80     1.397   .     A
C79    C78     1.403   1_455 A
C81    C82     1.397   .     A
C81    N72     1.359   1_645 A
C82    C78     1.404   1_545 A
