data_pcu+N106+E14
_audit_creation_date              2023-11-17
_audit_creation_method            'Materials Studio'
_symmetry_space_group_name_H-M    'P1'
_symmetry_Int_Tables_number       1
_symmetry_cell_setting            triclinic
loop_
_symmetry_equiv_pos_as_xyz
  x,y,z
_cell_length_a                    14.3215
_cell_length_b                    11.3683
_cell_length_c                    10.1467
_cell_angle_alpha                 104.7470
_cell_angle_beta                  71.0522
_cell_angle_gamma                 92.9699
loop_
_atom_site_label
_atom_site_type_symbol
_atom_site_fract_x
_atom_site_fract_y
_atom_site_fract_z
_atom_site_U_iso_or_equiv
_atom_site_adp_type
_atom_site_occupancy
Y0     Y     0.88424  -0.00403   0.02297   0.00000  Uiso   1.00
Y1     Y     0.11599   1.00419   0.97717   0.00000  Uiso   1.00
O2     O     0.92855   0.18138  -0.01708   0.00000  Uiso   1.00
O3     O     1.02303  -0.07331   0.83606   0.00000  Uiso   1.00
C4     C     0.30187   1.00267   0.98751   0.00000  Uiso   1.00
O5     O     0.13492   1.04896   0.76423   0.00000  Uiso   1.00
O6     O     0.72282   0.05416   0.11998   0.00000  Uiso   1.00
O7     O     0.77027  -0.05988   0.91085   0.00000  Uiso   1.00
O8     O     0.07409   0.20251   1.02558   0.00000  Uiso   1.00
O9     O    -0.02281   1.07348   0.16410   0.00000  Uiso   1.00
O10    O     0.86531  -0.04881   0.23590   0.00000  Uiso   1.00
O11    O     0.92616   0.79765  -0.02546   0.00000  Uiso   1.00
C12    C     0.00111   0.24625   1.00371   0.00000  Uiso   1.00
O13    O     0.07167   0.81880   1.01727   0.00000  Uiso   1.00
C14    C     0.06563   0.99381   0.73830   0.00000  Uiso   1.00
O15    O     0.27740   0.94593   0.88022   0.00000  Uiso   1.00
O16    O     0.22997   1.06011   0.08927   0.00000  Uiso   1.00
C17    C     0.69836  -0.00251   0.01265   0.00000  Uiso   1.00
C18    C     0.99912   0.75392  -0.00355   0.00000  Uiso   1.00
C19    C     0.93458   0.00636   0.26187   0.00000  Uiso   1.00
C20    C     0.07847   0.57254   0.02097   0.00000  Uiso   1.00
C21    C    -0.00024   0.62393  -0.00218   0.00000  Uiso   1.00
C22    C     0.92138   0.55001   0.97701   0.00000  Uiso   1.00
C23    C     0.92173   0.42765   0.97925   0.00000  Uiso   1.00
C24    C     0.00046   0.37626   0.00237   0.00000  Uiso   1.00
C25    C     0.07884   0.45017   0.02317   0.00000  Uiso   1.00
H26    H     0.14003   0.62684   0.03746   0.00000  Uiso   1.00
H27    H     0.85952   0.58661   0.95907   0.00000  Uiso   1.00
H28    H     0.86018   0.37335   0.96277   0.00000  Uiso   1.00
H29    H     0.14072   0.41355   0.04107   0.00000  Uiso   1.00
C30    C     0.42427   0.06540   1.11837   0.00000  Uiso   1.00
C31    C     0.40331   0.00156  -0.00624   0.00000  Uiso   1.00
C32    C     0.47997   0.93623  -0.12447   0.00000  Uiso   1.00
C33    C     0.57596   0.93479  -0.11821   0.00000  Uiso   1.00
C34    C     0.59692  -0.00137   0.00640   0.00000  Uiso   1.00
C35    C     0.52026   0.06396   1.12463   0.00000  Uiso   1.00
H36    H     0.36641   0.11634   1.21109   0.00000  Uiso   1.00
H37    H     0.46569   0.88611  -0.22174   0.00000  Uiso   1.00
H38    H     0.63382   0.88382  -0.21091   0.00000  Uiso   1.00
H39    H     0.53454   0.11403   1.22191   0.00000  Uiso   1.00
C40    C     0.92396  -0.07425   0.47342   0.00000  Uiso   1.00
C41    C    -0.03286   0.00392   0.38472   0.00000  Uiso   1.00
C42    C     0.04335   1.07834   0.41243   0.00000  Uiso   1.00
C43    C     0.07608   1.07463   0.52698   0.00000  Uiso   1.00
C44    C     0.03301  -0.00367   0.61554   0.00000  Uiso   1.00
C45    C     0.95678  -0.07807   0.58785   0.00000  Uiso   1.00
H46    H     0.86531  -0.13290   0.45379   0.00000  Uiso   1.00
H47    H     0.07746   1.13969   0.34581   0.00000  Uiso   1.00
H48    H     0.13471   1.13331   0.54666   0.00000  Uiso   1.00
H49    H     0.92266  -0.13942   0.65446   0.00000  Uiso   1.00
loop_
_geom_bond_atom_site_label_1
_geom_bond_atom_site_label_2
_geom_bond_distance
_geom_bond_site_symmetry_2
_ccdc_geom_bond_type
Y0     O2      2.267   .     S
Y0     O6      2.258   .     S
Y0     O10     2.273   .     S
Y0     O3      2.263   1_554 S
Y0     O7      2.257   1_554 S
Y0     O9      2.252   1_645 S
Y0     O11     2.252   1_545 S
Y1     O5      2.273   .     S
Y1     O13     2.267   .     S
Y1     O15     2.258   .     S
Y1     O3      2.252   1_465 S
Y1     O8      2.252   1_565 S
Y1     O9      2.263   1_556 S
Y1     O16     2.257   1_556 S
O2     C12     1.285   1_654 A
O3     Y0      2.263   1_556 S
O3     Y1      2.252   1_645 S
O3     C14     1.372   1_645 S
C4     O15     1.261   .     A
C4     O16     1.260   1_556 A
C4     C31     1.475   1_566 S
O5     C14     1.212   .     D
O6     C17     1.261   .     A
O7     Y0      2.257   1_556 S
O7     C17     1.261   1_556 A
O8     C12     1.284   .     A
O8     Y1      2.252   1_545 S
O9     Y0      2.252   1_465 S
O9     Y1      2.263   1_554 S
O9     C19     1.372   1_465 S
O10    C19     1.212   .     D
O11    C18     1.284   .     A
O11    Y0      2.252   1_565 S
C12    O2      1.285   1_456 A
C12    C24     1.482   1_556 S
O13    C18     1.285   1_456 A
C14    O3      1.372   1_465 S
C14    C44     1.472   1_565 S
O16    Y1      2.257   1_554 S
O16    C4      1.260   1_554 A
C17    C34     1.475   .     S
C17    O7      1.261   1_554 A
C18    O13     1.285   1_654 A
C18    C21     1.482   1_655 S
C19    O9      1.372   1_645 S
C19    C41     1.473   1_655 S
C20    C21     1.406   .     A
C20    C25     1.397   .     A
C20    H26     1.083   .     S
C21    C22     1.406   1_454 A
C21    C18     1.482   1_455 S
C22    C23     1.397   .     A
C22    H27     1.083   .     S
C22    C21     1.406   1_656 A
C23    H28     1.083   .     S
C23    C24     1.406   1_656 A
C24    C25     1.406   .     A
C24    C23     1.406   1_454 A
C24    C12     1.482   1_554 S
C25    H29     1.083   .     S
C30    C35     1.398   .     A
C30    H36     1.083   .     S
C30    C31     1.404   1_556 A
C31    C30     1.404   1_554 A
C31    C32     1.404   1_545 A
C31    C4      1.475   1_544 S
C32    C33     1.398   .     A
C32    H37     1.083   .     S
C32    C31     1.404   1_565 A
C33    H38     1.083   .     S
C33    C34     1.404   1_565 A
C34    C33     1.404   1_545 A
C34    C35     1.404   1_554 A
C35    H39     1.083   .     S
C35    C34     1.404   1_556 A
C40    C45     1.397   .     A
C40    H46     1.083   .     S
C40    C41     1.404   1_655 A
C41    C40     1.404   1_455 A
C41    C42     1.403   1_545 A
C41    C19     1.473   1_455 S
C42    C43     1.398   .     A
C42    H47     1.083   .     S
C42    C41     1.403   1_565 A
C43    H48     1.083   .     S
C43    C44     1.404   1_565 A
C44    C43     1.404   1_545 A
C44    C45     1.403   1_455 A
C44    C14     1.472   1_545 S
C45    H49     1.083   .     S
C45    C44     1.403   1_655 A
