data_pcu+N394+E8
_audit_creation_date              2023-11-17
_audit_creation_method            'Materials Studio'
_symmetry_space_group_name_H-M    'P1'
_symmetry_Int_Tables_number       1
_symmetry_cell_setting            triclinic
loop_
_symmetry_equiv_pos_as_xyz
  x,y,z
_cell_length_a                    16.0264
_cell_length_b                    13.5683
_cell_length_c                    12.7425
_cell_angle_alpha                 89.8359
_cell_angle_beta                  85.3557
_cell_angle_gamma                 84.3612
loop_
_atom_site_label
_atom_site_type_symbol
_atom_site_fract_x
_atom_site_fract_y
_atom_site_fract_z
_atom_site_U_iso_or_equiv
_atom_site_adp_type
_atom_site_occupancy
Pr0    Pr    0.09033   0.99997  -0.01162   0.00000  Uiso   1.00
Pr1    Pr    0.90987   0.00023   1.01182   0.00000  Uiso   1.00
O2     O     0.91463   0.16885   1.00921   0.00000  Uiso   1.00
O3     O     0.05776   0.16861  -0.00669   0.00000  Uiso   1.00
O4     O     0.21603  -0.00016   0.89234   0.00000  Uiso   1.00
O5     O     0.21534   0.99974   0.06167   0.00000  Uiso   1.00
O6     O     1.00256   0.99999   0.13568   0.00000  Uiso   1.00
O7     O     0.13936   0.99979   0.15057   0.00000  Uiso   1.00
C8     C     0.93020   0.00032   0.80119   0.00000  Uiso   1.00
C9     C     0.98247   0.21412   0.00165   0.00000  Uiso   1.00
C10    C     0.25881  -0.00027   0.97278   0.00000  Uiso   1.00
C11    C     0.74139   0.00047   0.02742   0.00000  Uiso   1.00
C12    C     0.01773   0.78608   0.99854   0.00000  Uiso   1.00
C13    C     0.07000   0.99988   0.19901   0.00000  Uiso   1.00
O14    O     0.08557   0.83135  -0.00900   0.00000  Uiso   1.00
O15    O     0.94244   0.83158   1.00689   0.00000  Uiso   1.00
O16    O     0.78417   1.00037   0.10785   0.00000  Uiso   1.00
O17    O     0.78487   0.00046   0.93852   0.00000  Uiso   1.00
O18    O    -0.00236   0.00022   0.86452   0.00000  Uiso   1.00
O19    O     0.86084   0.00040   0.84963   0.00000  Uiso   1.00
C20    C     0.96051   0.52749   1.00461   0.00000  Uiso   1.00
C21    C     0.03969   0.47271  -0.00448   0.00000  Uiso   1.00
N22    N     0.11026   0.52083  -0.01232   0.00000  Uiso   1.00
C23    C     0.10531   0.62148  -0.01152   0.00000  Uiso   1.00
C24    C     0.02601   0.67684  -0.00244   0.00000  Uiso   1.00
N25    N     0.95547   0.62794   1.00541   0.00000  Uiso   1.00
N26    N     0.88994   0.47937   1.01248   0.00000  Uiso   1.00
C27    C     0.89489   0.37871   1.01171   0.00000  Uiso   1.00
C28    C     0.97419   0.32335   1.00262   0.00000  Uiso   1.00
N29    N     0.04473   0.37226  -0.00525   0.00000  Uiso   1.00
H30    H     0.16274   0.65766  -0.01794   0.00000  Uiso   1.00
H31    H     0.83746   0.34253   1.01816   0.00000  Uiso   1.00
C32    C     0.47696   0.00059   0.04931   0.00000  Uiso   1.00
C33    C     0.52324   0.99958   0.95088   0.00000  Uiso   1.00
N34    N     0.48250   0.99857   0.86160   0.00000  Uiso   1.00
C35    C     0.39742   0.99858   0.86621   0.00000  Uiso   1.00
C36    C     0.35084   0.99965   0.96464   0.00000  Uiso   1.00
N37    N     0.39204   0.00060   0.05397   0.00000  Uiso   1.00
N38    N     0.51771   0.00157   0.13859   0.00000  Uiso   1.00
C39    C     0.60280   0.00155   0.13398   0.00000  Uiso   1.00
C40    C     0.64936   0.00056   0.03555   0.00000  Uiso   1.00
N41    N     0.60817   0.99961   0.94622   0.00000  Uiso   1.00
H42    H     0.36655   0.99776   0.79378   0.00000  Uiso   1.00
H43    H     0.63366   0.00231   0.20640   0.00000  Uiso   1.00
C44    C     0.96583  -0.00059   0.46921   0.00000  Uiso   1.00
C45    C     0.03435   1.00086   0.53099   0.00000  Uiso   1.00
N46    N     0.11317   1.00188   0.48342   0.00000  Uiso   1.00
C47    C     0.12666   1.00149   0.37665   0.00000  Uiso   1.00
C48    C     0.05817   1.00005   0.31453   0.00000  Uiso   1.00
N49    N     0.97925  -0.00095   0.36264   0.00000  Uiso   1.00
N50    N     0.88702  -0.00163   0.51678   0.00000  Uiso   1.00
C51    C     0.87353  -0.00125   0.62355   0.00000  Uiso   1.00
C52    C     0.94202   0.00017   0.68567   0.00000  Uiso   1.00
N53    N     0.02094   1.00119   0.63756   0.00000  Uiso   1.00
H54    H     0.19013   1.00237   0.34070   0.00000  Uiso   1.00
H55    H     0.81006  -0.00214   0.65950   0.00000  Uiso   1.00
loop_
_geom_bond_atom_site_label_1
_geom_bond_atom_site_label_2
_geom_bond_distance
_geom_bond_site_symmetry_2
_ccdc_geom_bond_type
Pr0    O5      2.278   .     S
Pr0    O7      2.270   .     S
Pr0    O14     2.297   .     S
Pr0    O3      2.296   1_565 S
Pr0    O4      2.271   1_564 S
Pr0    O6      2.253   1_455 S
Pr0    O18     2.253   1_564 S
Pr1    O2      2.297   .     S
Pr1    O17     2.278   .     S
Pr1    O19     2.270   .     S
Pr1    O6      2.253   1_546 S
Pr1    O15     2.296   1_545 S
Pr1    O16     2.271   1_546 S
Pr1    O18     2.253   1_655 S
O2     C9      1.297   1_556 A
O3     Pr0     2.296   1_545 S
O3     C9      1.297   1_455 A
O4     C10     1.278   .     A
O4     Pr0     2.271   1_546 S
O5     C10     1.281   1_564 A
O6     Pr0     2.253   1_655 S
O6     Pr1     2.253   1_564 S
O6     C13     1.400   1_655 S
O7     C13     1.227   .     D
C8     O19     1.227   .     D
C8     C52     1.469   .     S
C8     O18     1.400   1_655 S
C9     O2      1.297   1_554 A
C9     O3      1.297   1_655 A
C9     C28     1.475   1_554 S
C10    O5      1.281   1_546 A
C10    C36     1.470   1_545 S
C11    C40     1.470   .     S
C11    O16     1.278   1_545 A
C11    O17     1.281   1_554 A
C12    O14     1.297   1_556 A
C12    O15     1.297   1_455 A
C12    C24     1.475   1_556 S
C13    C48     1.469   .     S
C13    O6      1.400   1_455 S
O14    C12     1.297   1_554 A
O15    Pr1     2.296   1_565 S
O15    C12     1.297   1_655 A
O16    Pr1     2.271   1_564 S
O16    C11     1.278   1_565 A
O17    C11     1.281   1_556 A
O18    Pr0     2.253   1_546 S
O18    Pr1     2.253   1_455 S
O18    C8      1.400   1_455 S
C20    N25     1.357   .     A
C20    N26     1.357   .     A
C20    C21     1.403   1_656 A
C21    N22     1.357   .     A
C21    N29     1.357   .     A
C21    C20     1.403   1_454 A
N22    C23     1.360   .     A
C23    C24     1.408   .     A
C23    H30     1.082   .     S
C24    N25     1.363   1_454 A
C24    C12     1.475   1_554 S
N25    C24     1.363   1_656 A
N26    C27     1.360   .     A
C27    C28     1.408   .     A
C27    H31     1.082   .     S
C28    N29     1.363   1_656 A
C28    C9      1.475   1_556 S
N29    C28     1.363   1_454 A
C32    N37     1.358   .     A
C32    N38     1.358   .     A
C32    C33     1.404   1_544 A
C33    N34     1.358   .     A
C33    N41     1.358   .     A
C33    C32     1.404   1_566 A
N34    C35     1.360   .     A
C35    C36     1.406   .     A
C35    H42     1.082   .     S
C36    N37     1.362   1_566 A
C36    C10     1.470   1_565 S
N37    C36     1.362   1_544 A
N38    C39     1.360   .     A
C39    C40     1.406   .     A
C39    H43     1.082   .     S
C40    N41     1.362   1_544 A
N41    C40     1.362   1_566 A
C44    N49     1.357   .     A
C44    N50     1.357   .     A
C44    C45     1.404   1_645 A
C45    N46     1.357   .     A
C45    N53     1.357   .     A
C45    C44     1.404   1_465 A
N46    C47     1.360   .     A
C47    C48     1.406   .     A
C47    H54     1.082   .     S
C48    N49     1.361   1_465 A
N49    C48     1.361   1_645 A
N50    C51     1.360   .     A
C51    C52     1.406   .     A
C51    H55     1.082   .     S
C52    N53     1.361   1_645 A
N53    C52     1.361   1_465 A
