data_pcu+N394+E59
_audit_creation_date              2023-11-17
_audit_creation_method            'Materials Studio'
_symmetry_space_group_name_H-M    'P1'
_symmetry_Int_Tables_number       1
_symmetry_cell_setting            triclinic
loop_
_symmetry_equiv_pos_as_xyz
  x,y,z
_cell_length_a                    24.1487
_cell_length_b                    21.6225
_cell_length_c                    19.2950
_cell_angle_alpha                 91.5698
_cell_angle_beta                  125.7340
_cell_angle_gamma                 68.1113
loop_
_atom_site_label
_atom_site_type_symbol
_atom_site_fract_x
_atom_site_fract_y
_atom_site_fract_z
_atom_site_U_iso_or_equiv
_atom_site_adp_type
_atom_site_occupancy
Pr0    Pr    0.06279   0.95026  -0.02282   0.00000  Uiso   1.00
Pr1    Pr    0.94638   0.04408   1.02544   0.00000  Uiso   1.00
O2     O     0.93901   0.12983   0.95200   0.00000  Uiso   1.00
O3     O     0.05680   0.05074   0.03071   0.00000  Uiso   1.00
O4     O     0.08018   0.02172   0.91690   0.00000  Uiso   1.00
O5     O     0.17961   0.93210   0.02166   0.00000  Uiso   1.00
O6     O     1.07869   0.99795   0.09091   0.00000  Uiso   1.00
O7     O     0.08270   0.99324   0.09838   0.00000  Uiso   1.00
C8     C     0.88845   0.04332   0.83377   0.00000  Uiso   1.00
C9     C     1.00584   0.11173  -0.02199   0.00000  Uiso   1.00
C10    C     0.15177  -0.01401   0.96450   0.00000  Uiso   1.00
C11    C     0.85320   0.01172   0.03298   0.00000  Uiso   1.00
C12    C     0.00673   0.88202   1.02858   0.00000  Uiso   1.00
C13    C     0.12014   0.94962   0.16871   0.00000  Uiso   1.00
O14    O     0.07314   0.86410   0.05366   0.00000  Uiso   1.00
O15    O     0.95499   0.94257   0.97482   0.00000  Uiso   1.00
O16    O     0.92487   0.97481   0.08280   0.00000  Uiso   1.00
O17    O     0.82801   0.06513   0.97705   0.00000  Uiso   1.00
O18    O    -0.06894  -0.00499   0.91291   0.00000  Uiso   1.00
O19    O     0.92602   0.00071   0.90357   0.00000  Uiso   1.00
C20    C     0.03467   0.32160   0.02755   0.00000  Uiso   1.00
C21    C     0.08442   0.40670   0.07055   0.00000  Uiso   1.00
H22    H     0.89252   0.68330   0.84723   0.00000  Uiso   1.00
C23    C     0.94913   0.44398   0.96424   0.00000  Uiso   1.00
C24    C     0.96053   0.37543   0.97050   0.00000  Uiso   1.00
N25    N     1.01299   0.76755   0.04483   0.00000  Uiso   1.00
N26    N    -0.00101   0.22634   0.96233   0.00000  Uiso   1.00
O27    O     0.90255   0.78786   0.90698   0.00000  Uiso   1.00
O28    O     0.10880   0.20473   0.10186   0.00000  Uiso   1.00
H29    H     0.92490   0.86045   1.02351   0.00000  Uiso   1.00
H30    H     1.01662   0.83142   0.12999   0.00000  Uiso   1.00
H31    H     0.91170   0.56376   0.86196   0.00000  Uiso   1.00
H32    H     0.05958   0.64087   0.12836   0.00000  Uiso   1.00
H33    H     0.07935   0.52105   0.14245   0.00000  Uiso   1.00
H34    H     0.07021   0.73231   0.09258   0.00000  Uiso   1.00
H35    H     0.15337   0.29787   0.12271   0.00000  Uiso   1.00
H36    H     0.08798   0.13480  -0.01561   0.00000  Uiso   1.00
H37    H    -0.00120   0.16190   0.87813   0.00000  Uiso   1.00
H38    H     0.13361   0.41687   0.10937   0.00000  Uiso   1.00
H39    H     0.91159   0.36496   0.93284   0.00000  Uiso   1.00
H40    H     0.89187   0.48447   0.92409   0.00000  Uiso   1.00
H41    H     0.94458   0.26243   0.90945   0.00000  Uiso   1.00
C42    C     0.93350   0.64858   0.91170   0.00000  Uiso   1.00
C43    C     0.96081   0.74535   0.97593   0.00000  Uiso   1.00
C44    C     0.98757   0.83625   1.05865   0.00000  Uiso   1.00
C45    C     0.99823   0.53332   1.00279   0.00000  Uiso   1.00
C46    C     0.97536   0.67171   0.98579   0.00000  Uiso   1.00
C47    C     0.94446   0.58022   0.92000   0.00000  Uiso   1.00
C48    C     0.02861   0.62459   0.06905   0.00000  Uiso   1.00
C49    C     0.04006   0.55606   0.07732   0.00000  Uiso   1.00
C50    C     0.09595   0.33823   0.07834   0.00000  Uiso   1.00
C51    C     0.04990   0.24796   0.03417   0.00000  Uiso   1.00
C52    C     0.02537   0.15787  -0.05114   0.00000  Uiso   1.00
C53    C     0.01085   0.46039   0.01225   0.00000  Uiso   1.00
C54    C     0.61209   1.04343   0.96094   0.00000  Uiso   1.00
C55    C     0.50956   1.01293   0.91433   0.00000  Uiso   1.00
H56    H     0.39648   0.05610   0.11670   0.00000  Uiso   1.00
C57    C     0.57989   0.03643   0.05819   0.00000  Uiso   1.00
C58    C     0.62399   0.04957   0.04127   0.00000  Uiso   1.00
N59    N     0.27436  -0.04530   0.99516   0.00000  Uiso   1.00
N60    N     0.73525   1.04656   0.01435   0.00000  Uiso   1.00
O61    O     0.35048  -0.03383   0.13575   0.00000  Uiso   1.00
O62    O     0.64300   1.05727   0.86963   0.00000  Uiso   1.00
H63    H     0.20284   0.05363  -0.01100   0.00000  Uiso   1.00
H64    H     0.16908   0.03100   0.88583   0.00000  Uiso   1.00
H65    H     0.47107   0.08071   0.08537   0.00000  Uiso   1.00
H66    H     0.39572   0.89288   0.98290   0.00000  Uiso   1.00
H67    H     0.47016   0.91784   0.95035   0.00000  Uiso   1.00
H68    H     0.27789   0.92507   0.95241   0.00000  Uiso   1.00
H69    H     0.54431   1.01930   0.83639   0.00000  Uiso   1.00
H70    H     0.78769   0.95646   0.98867   0.00000  Uiso   1.00
H71    H     0.83622   0.95615   0.10302   0.00000  Uiso   1.00
H72    H     0.46504   1.00015   0.86387   0.00000  Uiso   1.00
H73    H     0.66707   0.06415   0.09081   0.00000  Uiso   1.00
H74    H     0.59139   0.03990   0.12093   0.00000  Uiso   1.00
H75    H     0.74205   0.07261   0.06342   0.00000  Uiso   1.00
C76    C     0.41384   0.02441   0.08221   0.00000  Uiso   1.00
C77    C     0.33955  -0.03741   0.06575   0.00000  Uiso   1.00
C78    C     0.19892   0.00984  -0.04306   0.00000  Uiso   1.00
C79    C     0.47725   0.00120   0.01553   0.00000  Uiso   1.00
C80    C     0.39012  -0.02734   0.05205   0.00000  Uiso   1.00
C81    C     0.45704   0.03832   0.06449   0.00000  Uiso   1.00
C82    C     0.41137   0.93427   1.00468   0.00000  Uiso   1.00
C83    C     0.45452   0.94847   0.98663   0.00000  Uiso   1.00
C84    C     0.55415   1.02516   0.89788   0.00000  Uiso   1.00
C85    C     0.66200   1.05147   0.94392   0.00000  Uiso   1.00
C86    C     0.80316   0.98899   1.03552   0.00000  Uiso   1.00
C87    C     0.52271   1.01701   0.99554   0.00000  Uiso   1.00
C88    C     0.93330   0.97757   0.61628   0.00000  Uiso   1.00
C89    C     0.91209   0.98556   0.47699   0.00000  Uiso   1.00
H90    H     0.07971   0.09405   0.43321   0.00000  Uiso   1.00
C91    C     0.02174  -0.00507   0.60494   0.00000  Uiso   1.00
C92    C    -0.00079   0.98698   0.65525   0.00000  Uiso   1.00
N93    N     0.08555   0.98057   0.26323   0.00000  Uiso   1.00
N94    N     0.91127   0.01004   0.72819   0.00000  Uiso   1.00
O95    O     0.07672   0.08421   0.30006   0.00000  Uiso   1.00
O96    O     0.87823   0.92997   0.65188   0.00000  Uiso   1.00
H97    H     0.14612   0.01954   0.24589   0.00000  Uiso   1.00
H98    H     0.19628   0.92980   0.30571   0.00000  Uiso   1.00
H99    H     0.04129   0.07862   0.52146   0.00000  Uiso   1.00
H100   H     0.99690   0.95261   0.28992   0.00000  Uiso   1.00
H101   H     0.96353   0.93434   0.38092   0.00000  Uiso   1.00
H102   H     0.07160   0.93906   0.25733   0.00000  Uiso   1.00
H103   H     0.83979   0.96844   0.49577   0.00000  Uiso   1.00
H104   H     0.85893   0.97183   0.76151   0.00000  Uiso   1.00
H105   H     0.80468   0.06123   0.69779   0.00000  Uiso   1.00
H106   H     0.87661   0.98617   0.40816   0.00000  Uiso   1.00
H107   H     0.03323  -0.01290   0.72407   0.00000  Uiso   1.00
H108   H     0.07252   0.00157   0.63552   0.00000  Uiso   1.00
H109   H     0.94064   0.03997   0.74698   0.00000  Uiso   1.00
C110   C     0.05367   0.05955   0.42077   0.00000  Uiso   1.00
C111   C     0.06653   0.03358   0.30276   0.00000  Uiso   1.00
C112   C     0.14207   0.97123   0.25050   0.00000  Uiso   1.00
C113   C     0.00131   0.00392   0.46062   0.00000  Uiso   1.00
C114   C     0.04233   0.02393   0.35516   0.00000  Uiso   1.00
C115   C     0.03320   0.04977   0.47264   0.00000  Uiso   1.00
C116   C     1.00771  -0.01986   0.34037   0.00000  Uiso   1.00
C117   C     0.98783   0.96999   0.39269   0.00000  Uiso   1.00
C118   C     0.89080   0.97580   0.52749   0.00000  Uiso   1.00
C119   C     0.90772   0.96925   0.66704   0.00000  Uiso   1.00
C120   C     0.86066   0.02101   0.75039   0.00000  Uiso   1.00
C121   C     0.97838   0.99440   0.51497   0.00000  Uiso   1.00
loop_
_geom_bond_atom_site_label_1
_geom_bond_atom_site_label_2
_geom_bond_distance
_geom_bond_site_symmetry_2
_ccdc_geom_bond_type
Pr0    O5      2.283   .     S
Pr0    O7      2.337   .     S
Pr0    O14     2.255   .     S
Pr0    O3      2.372   1_565 S
Pr0    O4      2.252   1_564 S
Pr0    O6      2.283   1_455 S
Pr0    O18     2.399   1_564 S
Pr1    O2      2.254   .     S
Pr1    O17     2.277   .     S
Pr1    O19     2.350   .     S
Pr1    O6      2.404   1_546 S
Pr1    O15     2.365   1_545 S
Pr1    O16     2.254   1_546 S
Pr1    O18     2.281   1_655 S
O2     C9      1.266   1_556 A
O3     Pr0     2.372   1_545 S
O3     C9      1.300   1_455 A
O4     C10     1.272   .     A
O4     Pr0     2.252   1_546 S
O5     C10     1.283   1_564 A
O6     Pr0     2.283   1_655 S
O6     Pr1     2.404   1_564 S
O6     C13     1.378   1_655 S
O7     C13     1.245   .     D
C8     O19     1.226   .     D
C8     C120    1.486   .     S
C8     O18     1.390   1_655 S
C9     O2      1.266   1_554 A
C9     O3      1.300   1_655 A
C9     C52     1.492   1_655 S
C10    O5      1.283   1_546 A
C10    C78     1.490   1_556 S
C11    O16     1.275   1_545 A
C11    O17     1.283   1_554 A
C11    C86     1.489   1_544 S
C12    O14     1.264   1_556 A
C12    O15     1.301   1_455 A
C12    C44     1.489   1_455 S
C13    C112    1.469   .     S
C13    O6      1.378   1_455 S
O14    C12     1.264   1_554 A
O15    Pr1     2.365   1_565 S
O15    C12     1.301   1_655 A
O16    Pr1     2.254   1_564 S
O16    C11     1.275   1_565 A
O17    C11     1.283   1_556 A
O18    Pr0     2.399   1_546 S
O18    Pr1     2.281   1_455 S
O18    C8      1.390   1_455 S
C20    C50     1.401   .     A
C20    C51     1.485   .     S
C20    C24     1.409   1_454 A
C21    H38     1.080   .     S
C21    C50     1.396   .     A
C21    C53     1.403   .     A
H22    C42     1.072   .     S
C23    C24     1.398   .     A
C23    H40     1.078   .     S
C23    C53     1.403   1_656 A
C24    H39     1.079   .     S
C24    C20     1.409   1_656 A
N25    H34     1.051   1_655 S
N25    C43     1.430   1_554 S
N25    C44     1.464   1_554 S
N26    H41     1.044   1_455 S
N26    C51     1.433   1_556 S
N26    C52     1.461   1_556 S
O27    C43     1.229   .     D
O28    C51     1.228   .     D
H29    C44     1.120   .     S
H30    C44     1.106   1_554 S
H31    C47     1.077   .     S
H32    C48     1.081   .     S
H33    C49     1.085   .     S
H34    N25     1.051   1_455 S
H35    C50     1.081   .     S
H36    C52     1.118   .     S
H37    C52     1.106   1_556 S
H41    N26     1.044   1_655 S
C42    C46     1.402   .     A
C42    C47     1.397   .     A
C43    C46     1.489   .     S
C43    N25     1.430   1_556 S
C44    N25     1.464   1_556 S
C44    H30     1.106   1_556 S
C44    C12     1.489   1_655 S
C45    C47     1.397   .     A
C45    C49     1.402   1_656 A
C45    C53     1.485   1_656 S
C46    C48     1.404   1_656 A
C48    C49     1.398   .     A
C48    C46     1.404   1_454 A
C49    C45     1.402   1_454 A
C51    N26     1.433   1_554 S
C52    N26     1.461   1_554 S
C52    H37     1.106   1_554 S
C52    C9      1.492   1_455 S
C53    C23     1.403   1_454 A
C53    C45     1.485   1_454 S
C54    C84     1.411   .     A
C54    C85     1.487   .     S
C54    C58     1.414   1_566 A
C55    H72     1.079   .     S
C55    C84     1.395   .     A
C55    C87     1.413   .     A
H56    C76     1.084   .     S
C57    C58     1.399   .     A
C57    H74     1.080   .     S
C57    C87     1.414   1_544 A
C58    H73     1.078   .     S
C58    C54     1.414   1_544 A
N59    H68     1.054   1_545 S
N59    C77     1.430   1_556 S
N59    C78     1.464   1_556 S
N60    H75     1.048   1_565 S
N60    C85     1.431   1_554 S
N60    C86     1.459   1_554 S
O61    C77     1.222   .     D
O62    C85     1.217   .     D
H63    C78     1.120   .     S
H64    C78     1.116   1_556 S
H65    C81     1.081   .     S
H66    C82     1.080   .     S
H67    C83     1.081   .     S
H68    N59     1.054   1_565 S
H69    C84     1.079   .     S
H70    C86     1.104   .     S
H71    C86     1.119   1_554 S
H75    N60     1.048   1_545 S
C76    C80     1.404   .     A
C76    C81     1.397   .     A
C77    C80     1.479   .     S
C77    N59     1.430   1_554 S
C78    N59     1.464   1_554 S
C78    H64     1.116   1_554 S
C78    C10     1.490   1_554 S
C79    C81     1.407   .     A
C79    C83     1.409   1_544 A
C79    C87     1.501   1_544 S
C80    C82     1.406   1_544 A
C82    C83     1.403   .     A
C82    C80     1.406   1_566 A
C83    C79     1.409   1_566 A
C85    N60     1.431   1_556 S
C86    N60     1.459   1_556 S
C86    H71     1.119   1_556 S
C86    C11     1.489   1_566 S
C87    C57     1.414   1_566 A
C87    C79     1.501   1_566 S
C88    C118    1.401   .     A
C88    C119    1.474   .     S
C88    C92     1.405   1_655 A
C89    H106    1.078   .     S
C89    C118    1.391   .     A
C89    C121    1.409   .     A
H90    C110    1.083   .     S
C91    H108    1.074   .     S
C91    C92     1.401   1_545 A
C91    C121    1.412   1_445 A
C92    C88     1.405   1_455 A
C92    C91     1.401   1_565 A
C92    H107    1.080   1_565 S
N93    H102    1.052   .     S
N93    C112    1.465   .     S
N93    C111    1.441   1_565 S
N94    H109    1.041   .     S
N94    C120    1.457   .     S
N94    C119    1.435   1_545 S
O95    C111    1.217   .     D
O96    C119    1.228   .     D
H97    C112    1.095   1_545 S
H98    C112    1.095   .     S
H99    C115    1.076   .     S
H100   C116    1.076   1_565 S
H101   C117    1.078   .     S
H103   C118    1.085   .     S
H104   C120    1.111   1_565 S
H105   C120    1.088   .     S
H107   C92     1.080   1_545 S
C110   C114    1.403   .     A
C110   C115    1.399   .     A
C111   C114    1.483   .     S
C111   N93     1.441   1_545 S
C112   H97     1.095   1_565 S
C113   C115    1.406   .     A
C113   C117    1.410   1_445 A
C113   C121    1.491   1_445 S
C114   C116    1.405   1_455 A
C116   H100    1.076   1_545 S
C116   C114    1.405   1_655 A
C116   C117    1.398   1_545 A
C117   C113    1.410   1_665 A
C117   C116    1.398   1_565 A
C119   N94     1.435   1_565 S
C120   H104    1.111   1_545 S
C121   C91     1.412   1_665 A
C121   C113    1.491   1_665 S
