data_pcu+N173+E9
_audit_creation_date              2023-11-17
_audit_creation_method            'Materials Studio'
_symmetry_space_group_name_H-M    'P1'
_symmetry_Int_Tables_number       1
_symmetry_cell_setting            triclinic
loop_
_symmetry_equiv_pos_as_xyz
  x,y,z
_cell_length_a                    19.6959
_cell_length_b                    21.4587
_cell_length_c                    19.7642
_cell_angle_alpha                 114.2681
_cell_angle_beta                  89.7929
_cell_angle_gamma                 90.2229
loop_
_atom_site_label
_atom_site_type_symbol
_atom_site_fract_x
_atom_site_fract_y
_atom_site_fract_z
_atom_site_U_iso_or_equiv
_atom_site_adp_type
_atom_site_occupancy
Gd0    Gd    0.00410   0.94274   0.97400   0.00000  Uiso   1.00
Gd1    Gd    1.00438   0.06103   0.02810   0.00000  Uiso   1.00
O2     O     0.89136   0.05807   0.02066   0.00000  Uiso   1.00
O3     O     0.89109   0.94555   0.98195   0.00000  Uiso   1.00
O4     O     0.99900   0.94590   0.86282   0.00000  Uiso   1.00
O5     O     0.00942   0.05785   0.91273   0.00000  Uiso   1.00
O6     O     0.00918   0.87685   1.03806   0.00000  Uiso   1.00
O7     O     1.00387   0.82777   0.92142   0.00000  Uiso   1.00
O8     O     0.11713   0.94577   0.96919   0.00000  Uiso   1.00
C9     C     0.00731   0.82028   0.98138   0.00000  Uiso   1.00
O10    O     0.11740   0.05811   0.03239   0.00000  Uiso   1.00
O11    O     0.00898   0.94592   0.08934   0.00000  Uiso   1.00
C12    C     1.00428   0.00158   0.85537   0.00000  Uiso   1.00
O13    O     0.99906   0.05786   0.13931   0.00000  Uiso   1.00
O14    O     1.00981   0.12692   0.96401   0.00000  Uiso   1.00
O15    O     0.00466   0.17599   0.08068   0.00000  Uiso   1.00
C16    C     0.85916   0.00180   0.00136   0.00000  Uiso   1.00
C17    C     1.00812   0.18349   0.02070   0.00000  Uiso   1.00
C18    C     0.00406   1.00218   0.14673   0.00000  Uiso   1.00
C19    C     0.14934   1.00194   1.00074   0.00000  Uiso   1.00
C20    C     0.01032   0.63033   0.99299   0.00000  Uiso   1.00
N21    N     0.01206   0.68904   0.05581   0.00000  Uiso   1.00
N22    N     0.01127   0.74963   0.05207   0.00000  Uiso   1.00
C23    C     0.00868   0.75365   0.98537   0.00000  Uiso   1.00
N24    N     0.00698   0.69502   0.92254   0.00000  Uiso   1.00
N25    N     0.00783   0.63443   0.92629   0.00000  Uiso   1.00
C26    C     0.01088   0.56355   0.99715   0.00000  Uiso   1.00
N27    N     0.01053   0.50484   0.93433   0.00000  Uiso   1.00
N28    N     0.01078   0.44427   0.93812   0.00000  Uiso   1.00
C29    C     0.01136   0.44020   1.00487   0.00000  Uiso   1.00
N30    N     0.01170   0.49891   0.06770   0.00000  Uiso   1.00
N31    N     0.01151   0.55948   0.06390   0.00000  Uiso   1.00
C32    C     0.01115   0.37344   1.00904   0.00000  Uiso   1.00
N33    N     0.00960   0.36933   0.07579   0.00000  Uiso   1.00
N34    N     0.00882   0.30874   0.07955   0.00000  Uiso   1.00
C35    C     0.00962   0.25012   1.01669   0.00000  Uiso   1.00
N36    N     0.01128   0.25415   0.94996   0.00000  Uiso   1.00
N37    N     0.01200   0.31473   0.94620   0.00000  Uiso   1.00
C38    C     0.36117   0.00157   0.00090   0.00000  Uiso   1.00
N39    N     0.32617   0.04243   0.06233   0.00000  Uiso   1.00
N40    N     0.25853   0.04310   0.06200   0.00000  Uiso   1.00
C41    C     0.22361   0.00189   1.00075   0.00000  Uiso   1.00
N42    N     0.25859  -0.03953   0.93959   0.00000  Uiso   1.00
N43    N     0.32625  -0.03917   0.93941   0.00000  Uiso   1.00
C44    C     0.43547   0.00145   0.00097   0.00000  Uiso   1.00
N45    N     0.47072   0.00045   0.94140   0.00000  Uiso   1.00
N46    N     0.53838   0.00118   0.94182   0.00000  Uiso   1.00
C47    C     0.57304   0.00147   0.00117   0.00000  Uiso   1.00
N48    N     0.53778   0.00177   0.06043   0.00000  Uiso   1.00
N49    N     0.47013   0.00247   0.06064   0.00000  Uiso   1.00
C50    C     0.64736   0.00163   0.00134   0.00000  Uiso   1.00
N51    N     0.68209  -0.03756   0.02851   0.00000  Uiso   1.00
N52    N     0.74974  -0.03803   0.02784   0.00000  Uiso   1.00
C53    C     0.78491   0.00177   1.00141   0.00000  Uiso   1.00
N54    N     0.75019   0.04153   0.97498   0.00000  Uiso   1.00
N55    N     0.68254   0.04090   0.97421   0.00000  Uiso   1.00
C56    C     0.00406   0.00208   0.35819   0.00000  Uiso   1.00
N57    N     1.00101   0.06179   0.34995   0.00000  Uiso   1.00
N58    N     1.00094   0.06185   0.28256   0.00000  Uiso   1.00
C59    C     1.00403   0.00221   0.22098   0.00000  Uiso   1.00
N60    N     0.00712   0.94251   0.22920   0.00000  Uiso   1.00
N61    N     0.00708   0.94244   0.29658   0.00000  Uiso   1.00
C62    C     0.00408   0.00199   0.43246   0.00000  Uiso   1.00
N63    N     0.00447   0.94219   0.44064   0.00000  Uiso   1.00
N64    N     0.00443   0.94210   0.50801   0.00000  Uiso   1.00
C65    C     0.00414   0.00180   0.56966   0.00000  Uiso   1.00
N66    N     0.00382   0.06160   0.56149   0.00000  Uiso   1.00
N67    N     0.00373   0.06169   0.49412   0.00000  Uiso   1.00
C68    C     0.00418   0.00171   0.64393   0.00000  Uiso   1.00
N69    N     1.00690   0.06138   0.70553   0.00000  Uiso   1.00
N70    N     1.00700   0.06130   0.77291   0.00000  Uiso   1.00
C71    C     0.00427   0.00157   0.78113   0.00000  Uiso   1.00
N72    N     0.00150   0.94189   0.71955   0.00000  Uiso   1.00
N73    N     0.00153   0.94196   0.65216   0.00000  Uiso   1.00
loop_
_geom_bond_atom_site_label_1
_geom_bond_atom_site_label_2
_geom_bond_distance
_geom_bond_site_symmetry_2
_ccdc_geom_bond_type
Gd0    O6      2.255   .     S
Gd0    O8      2.230   .     S
Gd0    O3      2.230   1_455 S
Gd0    O4      2.229   1_455 S
Gd0    O7      2.249   1_455 S
Gd0    O11     2.255   1_556 S
Gd1    O2      2.230   .     S
Gd1    O13     2.229   .     S
Gd1    O5      2.255   1_654 S
Gd1    O10     2.230   1_655 S
Gd1    O14     2.255   1_554 S
Gd1    O15     2.249   1_655 S
O2     C16     1.274   .     A
O3     Gd0     2.230   1_655 S
O3     C16     1.274   1_566 A
O4     Gd0     2.229   1_655 S
O4     C12     1.266   1_565 A
O5     Gd1     2.255   1_456 S
O5     C12     1.276   1_455 A
O6     C9      1.270   .     A
O7     Gd0     2.249   1_655 S
O7     C9      1.262   1_655 A
O8     C19     1.274   .     A
C9     C23     1.464   .     S
C9     O7      1.262   1_455 A
O10    Gd1     2.230   1_455 S
O10    C19     1.274   1_544 A
O11    C18     1.276   .     A
O11    Gd0     2.255   1_554 S
C12    O4      1.266   1_545 A
C12    O5      1.276   1_655 A
C12    C71     1.467   1_655 S
O13    C18     1.266   1_645 A
O14    Gd1     2.255   1_556 S
O14    C17     1.270   1_556 A
O15    Gd1     2.249   1_455 S
O15    C17     1.262   1_455 A
C16    O3      1.274   1_544 A
C16    C53     1.462   1_554 S
C17    O14     1.270   1_554 A
C17    O15     1.262   1_655 A
C17    C35     1.464   1_654 S
C18    O13     1.266   1_465 A
C18    C59     1.467   1_465 S
C19    O10     1.274   1_566 A
C19    C41     1.463   1_565 S
C20    N25     1.358   .     A
C20    C26     1.469   .     S
C20    N21     1.358   1_556 A
N21    N22     1.332   .     A
N21    C20     1.358   1_554 A
N22    C23     1.357   1_554 A
C23    N24     1.357   .     A
C23    N22     1.357   1_556 A
N24    N25     1.333   .     A
C26    N27     1.358   .     A
C26    N31     1.358   1_556 A
N27    N28     1.332   .     A
N28    C29     1.358   .     A
C29    C32     1.468   .     S
C29    N30     1.358   1_556 A
N30    N31     1.332   .     A
N30    C29     1.358   1_554 A
N31    C26     1.358   1_554 A
C32    N37     1.358   .     A
C32    N33     1.358   1_556 A
N33    N34     1.332   .     A
N33    C32     1.358   1_554 A
N34    C35     1.357   1_554 A
C35    N36     1.357   .     A
C35    N34     1.357   1_556 A
C35    C17     1.464   1_456 S
N36    N37     1.332   .     A
C38    N39     1.357   .     A
C38    C44     1.463   .     S
C38    N43     1.357   1_554 A
N39    N40     1.333   .     A
N40    C41     1.357   1_554 A
C41    N42     1.357   .     A
C41    N40     1.357   1_556 A
C41    C19     1.463   1_545 S
N42    N43     1.333   .     A
N43    C38     1.357   1_556 A
C44    N49     1.357   .     A
C44    N45     1.357   1_554 A
N45    N46     1.333   .     A
N45    C44     1.357   1_556 A
N46    C47     1.357   1_556 A
C47    N48     1.357   .     A
C47    C50     1.464   .     S
C47    N46     1.357   1_554 A
N48    N49     1.333   .     A
C50    N51     1.357   .     A
C50    N55     1.357   1_554 A
N51    N52     1.333   .     A
N52    C53     1.357   1_554 A
C53    N54     1.357   .     A
C53    N52     1.357   1_556 A
C53    C16     1.462   1_556 S
N54    N55     1.333   .     A
N55    C50     1.357   1_556 A
C56    C62     1.469   .     S
C56    N57     1.358   1_455 A
C56    N61     1.358   1_545 A
N57    N58     1.332   .     A
N57    C56     1.358   1_655 A
N58    C59     1.357   .     A
C59    N60     1.358   1_645 A
C59    C18     1.467   1_645 S
N60    N61     1.332   .     A
N60    C59     1.358   1_465 A
N61    C56     1.358   1_565 A
C62    N67     1.358   .     A
C62    N63     1.358   1_545 A
N63    N64     1.332   .     A
N63    C62     1.358   1_565 A
N64    C65     1.358   1_565 A
C65    N66     1.358   .     A
C65    C68     1.469   .     S
C65    N64     1.358   1_545 A
N66    N67     1.332   .     A
C68    N69     1.358   1_455 A
C68    N73     1.358   1_545 A
N69    N70     1.332   .     A
N69    C68     1.358   1_655 A
N70    C71     1.358   1_655 A
C71    N70     1.358   1_455 A
C71    N72     1.358   1_545 A
C71    C12     1.467   1_455 S
N72    N73     1.332   .     A
N72    C71     1.358   1_565 A
N73    C68     1.358   1_565 A
