data_pcu+N248+E161
_audit_creation_date              2023-11-17
_audit_creation_method            'Materials Studio'
_symmetry_space_group_name_H-M    'P1'
_symmetry_Int_Tables_number       1
_symmetry_cell_setting            triclinic
loop_
_symmetry_equiv_pos_as_xyz
  x,y,z
_cell_length_a                    23.9163
_cell_length_b                    23.2324
_cell_length_c                    26.3340
_cell_angle_alpha                 88.8926
_cell_angle_beta                  90.8354
_cell_angle_gamma                 85.0134
loop_
_atom_site_label
_atom_site_type_symbol
_atom_site_fract_x
_atom_site_fract_y
_atom_site_fract_z
_atom_site_U_iso_or_equiv
_atom_site_adp_type
_atom_site_occupancy
O0     O     0.90231   1.00127   0.96002   0.00000  Uiso   1.00
Yb1    Yb    0.99624   0.00285   0.05592   0.00000  Uiso   1.00
C2     C     1.00005   1.00428   0.15208   0.00000  Uiso   1.00
Yb3    Yb   -0.00845   1.00049   0.94807   0.00000  Uiso   1.00
O4     O     0.90583   0.00294   0.04774   0.00000  Uiso   1.00
C5     C     0.98546   0.11038   0.96011   0.00000  Uiso   1.00
C6     C     0.87875   0.00167   0.00441   0.00000  Uiso   1.00
O7     O     0.98484   0.04736   0.87696   0.00000  Uiso   1.00
C8     C    -0.01180   0.00055   0.85176   0.00000  Uiso   1.00
O9     O     1.00533   0.91568   0.08633   0.00000  Uiso   1.00
O10    O    -0.00089   0.93296   1.00390   0.00000  Uiso   1.00
O11    O     0.08533   0.00151   0.04361   0.00000  Uiso   1.00
O12    O    -0.00761   0.95422   0.87881   0.00000  Uiso   1.00
O13    O     0.08152   1.00010   0.95589   0.00000  Uiso   1.00
C14    C     0.00444   0.89358   0.04432   0.00000  Uiso   1.00
C15    C     0.10860   1.00070   0.99909   0.00000  Uiso   1.00
O16    O     0.00276   0.95699   0.12760   0.00000  Uiso   1.00
O17    O     0.99504   0.05025   0.12434   0.00000  Uiso   1.00
O18    O    -0.01671   0.08841   0.91803   0.00000  Uiso   1.00
O19    O     0.98954   0.07005   0.00082   0.00000  Uiso   1.00
H20    H     0.03359   0.16063   0.03814   0.00000  Uiso   1.00
C21    C     1.00743   0.83082   0.03750   0.00000  Uiso   1.00
C22    C     0.97920   0.80847   0.99643   0.00000  Uiso   1.00
C23    C     0.97915   0.74856   0.99064   0.00000  Uiso   1.00
C24    C     1.00911   0.71050   0.02597   0.00000  Uiso   1.00
C25    C     0.03933   0.73299   0.06658   0.00000  Uiso   1.00
C26    C     0.03798   0.79307   0.07215   0.00000  Uiso   1.00
C27    C     0.94621   0.72568   0.94747   0.00000  Uiso   1.00
C28    C     0.07201   0.69322   0.10408   0.00000  Uiso   1.00
C29    C     0.04488   0.61963   0.98948   0.00000  Uiso   1.00
C30    C     0.04376   0.55975   0.98352   0.00000  Uiso   1.00
C31    C     1.00403   0.53034   0.01048   0.00000  Uiso   1.00
C32    C     0.96639   0.56111   0.04292   0.00000  Uiso   1.00
C33    C     0.96916   0.62094   0.04780   0.00000  Uiso   1.00
C34    C     0.08089   0.52876   0.95104   0.00000  Uiso   1.00
C35    C     0.07876   0.46915   0.94556   0.00000  Uiso   1.00
C36    C     0.03908   0.43950   0.97201   0.00000  Uiso   1.00
C37    C     1.00164   0.47022   1.00466   0.00000  Uiso   1.00
C38    C     0.96125   0.44111   0.03094   0.00000  Uiso   1.00
C39    C     0.92453   0.47189   0.06393   0.00000  Uiso   1.00
C40    C     0.92706   0.53134   0.06989   0.00000  Uiso   1.00
C41    C     0.03510   0.38004   0.96587   0.00000  Uiso   1.00
C42    C     0.95851   0.38170   0.02336   0.00000  Uiso   1.00
C43    C     0.99123   0.29190   0.98358   0.00000  Uiso   1.00
C44    C     0.93448   0.31449   0.90176   0.00000  Uiso   1.00
C45    C     0.96121   0.21335   0.93255   0.00000  Uiso   1.00
C46    C     0.04948   0.27020   0.06405   0.00000  Uiso   1.00
C47    C     0.01365   0.19194   0.01107   0.00000  Uiso   1.00
C48    C     0.01709   0.25105   0.01885   0.00000  Uiso   1.00
C49    C     0.96289   0.27291   0.94030   0.00000  Uiso   1.00
C50    C    -0.01386   0.17283   0.96801   0.00000  Uiso   1.00
H51    H     0.02072   0.29622   0.08924   0.00000  Uiso   1.00
N52    N     1.00785   0.64887   0.02111   0.00000  Uiso   1.00
N53    N     0.99512   0.35254   0.99132   0.00000  Uiso   1.00
H54    H     0.08323   0.29663   0.05088   0.00000  Uiso   1.00
H55    H     0.95587   0.83788   0.96978   0.00000  Uiso   1.00
H56    H     0.06087   0.81069   0.10329   0.00000  Uiso   1.00
H57    H     0.92476   0.76132   0.92361   0.00000  Uiso   1.00
H58    H     0.97503   0.69894   0.92300   0.00000  Uiso   1.00
H59    H     0.91392   0.69867   0.96270   0.00000  Uiso   1.00
H60    H     0.10261   0.66354   0.08353   0.00000  Uiso   1.00
H61    H     0.09571   0.71776   0.13183   0.00000  Uiso   1.00
H62    H     0.04305   0.66721   0.12563   0.00000  Uiso   1.00
O63    O     0.93296   0.65154   0.07960   0.00000  Uiso   1.00
O64    O     0.08311   0.64893   0.96318   0.00000  Uiso   1.00
H65    H     0.11166   0.55029   0.92942   0.00000  Uiso   1.00
H66    H     0.89795   0.55363   0.09576   0.00000  Uiso   1.00
H67    H     0.10786   0.44656   0.91999   0.00000  Uiso   1.00
H68    H     0.88968   0.30629   0.89771   0.00000  Uiso   1.00
H69    H     0.93581   0.36034   0.91235   0.00000  Uiso   1.00
H70    H     0.94004   0.19852   0.89914   0.00000  Uiso   1.00
H71    H     0.89377   0.45008   0.08520   0.00000  Uiso   1.00
H72    H     0.06943   0.23279   0.08660   0.00000  Uiso   1.00
O73    O     0.91848   0.35303   0.04768   0.00000  Uiso   1.00
O74    O     0.07080   0.34955   0.93368   0.00000  Uiso   1.00
H75    H     0.95516   0.30832   0.86451   0.00000  Uiso   1.00
H76    H     0.80351   0.08586   0.03535   0.00000  Uiso   1.00
C77    C     0.16975   1.00019  -0.00242   0.00000  Uiso   1.00
C78    C     0.20270   0.94834  -0.01006   0.00000  Uiso   1.00
C79    C     0.26153   0.94717  -0.00974   0.00000  Uiso   1.00
C80    C     0.28741   0.99896  -0.00270   0.00000  Uiso   1.00
C81    C     0.25406   0.05136   0.00450   0.00000  Uiso   1.00
C82    C     0.19532   0.05144   0.00486   0.00000  Uiso   1.00
C83    C     0.29641   0.89060  -0.01534   0.00000  Uiso   1.00
C84    C     0.28082   0.10672   0.01267   0.00000  Uiso   1.00
C85    C     0.37526   1.00637   0.95379   0.00000  Uiso   1.00
C86    C     0.43398   1.00710   0.95408   0.00000  Uiso   1.00
C87    C     0.46398   0.99829   0.00046   0.00000  Uiso   1.00
C88    C     0.43499  -0.01108   0.04563   0.00000  Uiso   1.00
C89    C     0.37620  -0.01095   0.04356   0.00000  Uiso   1.00
C90    C     0.46332   1.01650   0.90923   0.00000  Uiso   1.00
C91    C     0.52169   1.01759   0.91038   0.00000  Uiso   1.00
C92    C     0.55207   1.00879   0.95643   0.00000  Uiso   1.00
C93    C     0.52316   0.99889   0.00158   0.00000  Uiso   1.00
C94    C     0.55318  -0.01057   0.04787   0.00000  Uiso   1.00
C95    C     0.52388  -0.01986   0.09273   0.00000  Uiso   1.00
C96    C     0.46543  -0.02007   0.09166   0.00000  Uiso   1.00
C97    C     0.61082   1.00925   0.95857   0.00000  Uiso   1.00
C98    C     0.61199   0.98933   0.04806   0.00000  Uiso   1.00
C99    C     0.69977   0.99938   0.00495   0.00000  Uiso   1.00
C100   C     0.70982   0.89572   0.97254   0.00000  Uiso   1.00
C101   C     0.79255   0.95202   0.98854   0.00000  Uiso   1.00
C102   C     0.68982   0.10201   0.03725   0.00000  Uiso   1.00
C103   C     0.78384   0.04829   0.02259   0.00000  Uiso   1.00
C104   C     0.72510   0.04856   0.02175   0.00000  Uiso   1.00
C105   C     0.73396   0.95041   0.98897   0.00000  Uiso   1.00
C106   C     0.81752   1.00054   1.00547   0.00000  Uiso   1.00
H107   H     0.66225   0.09166   0.06882   0.00000  Uiso   1.00
N108   N     0.34770   0.99801  -0.00183   0.00000  Uiso   1.00
N109   N     0.63947   0.99950   0.00391   0.00000  Uiso   1.00
H110   H     0.66391   0.11963   0.00440   0.00000  Uiso   1.00
H111   H     0.18245   0.90884   0.98461   0.00000  Uiso   1.00
H112   H     0.16930   0.09141   0.01065   0.00000  Uiso   1.00
H113   H     0.26983   0.85392  -0.01919   0.00000  Uiso   1.00
H114   H     0.32278   0.89249   0.95044   0.00000  Uiso   1.00
H115   H     0.32383   0.88218   0.01894   0.00000  Uiso   1.00
H116   H     0.30793   0.11580   0.98001   0.00000  Uiso   1.00
H117   H     0.24882   0.14408   0.01637   0.00000  Uiso   1.00
H118   H     0.30712   0.10287   0.04801   0.00000  Uiso   1.00
O119   O     0.34718  -0.01915   0.08743   0.00000  Uiso   1.00
O120   O     0.34531   1.01454   0.90888   0.00000  Uiso   1.00
H121   H     0.44125   1.02313   0.87295   0.00000  Uiso   1.00
H122   H     0.44430  -0.02731   0.12715   0.00000  Uiso   1.00
H123   H     0.54291   1.02467   0.87493   0.00000  Uiso   1.00
H124   H     0.72820   0.85871   0.99654   0.00000  Uiso   1.00
H125   H     0.66339   0.89775   0.97582   0.00000  Uiso   1.00
H126   H     0.81871   0.91457   0.97607   0.00000  Uiso   1.00
H127   H     0.54593  -0.02698   0.12891   0.00000  Uiso   1.00
H128   H     0.71625   0.13616   0.05000   0.00000  Uiso   1.00
O129   O     0.64202  -0.02105   0.09270   0.00000  Uiso   1.00
O130   O     0.63965   1.01925   0.91494   0.00000  Uiso   1.00
H131   H     0.72046   0.88755   0.93226   0.00000  Uiso   1.00
H132   H     0.04029   0.92029   0.79176   0.00000  Uiso   1.00
C133   C     0.00142   0.00548   0.20786   0.00000  Uiso   1.00
C134   C     0.97562   0.05278   0.23341   0.00000  Uiso   1.00
C135   C     0.97538   0.05320   0.28677   0.00000  Uiso   1.00
C136   C     1.00271   0.00614   0.31481   0.00000  Uiso   1.00
C137   C     0.02994   0.95910   0.28906   0.00000  Uiso   1.00
C138   C     0.02880   0.95910   0.23581   0.00000  Uiso   1.00
C139   C     0.94548   0.10323   0.31364   0.00000  Uiso   1.00
C140   C     0.06017   0.90910   0.31808   0.00000  Uiso   1.00
C141   C     0.96094   0.97733   0.39382   0.00000  Uiso   1.00
C142   C     0.95870   0.97618   0.44711   0.00000  Uiso   1.00
C143   C     0.99857   0.00437   0.47509   0.00000  Uiso   1.00
C144   C     0.03983   0.03302   0.44959   0.00000  Uiso   1.00
C145   C     0.04034   0.03292   0.39625   0.00000  Uiso   1.00
C146   C     0.91758   0.94798   0.47293   0.00000  Uiso   1.00
C147   C     0.91616   0.94753   0.52600   0.00000  Uiso   1.00
C148   C     0.95555   0.97567   0.55432   0.00000  Uiso   1.00
C149   C     0.99696   0.00412   0.52878   0.00000  Uiso   1.00
C150   C     0.03652   0.03258   0.55684   0.00000  Uiso   1.00
C151   C     0.07764   0.06074   0.53105   0.00000  Uiso   1.00
C152   C     0.07935   0.06097   0.47807   0.00000  Uiso   1.00
C153   C     0.95472   0.97607   0.60772   0.00000  Uiso   1.00
C154   C     0.03386   0.03213   0.61014   0.00000  Uiso   1.00
C155   C     0.99211   0.00296   0.68901   0.00000  Uiso   1.00
C156   C     0.92848   0.09619   0.68572   0.00000  Uiso   1.00
C157   C     0.96030   0.04656   0.76802   0.00000  Uiso   1.00
C158   C     0.05659   0.91056   0.69032   0.00000  Uiso   1.00
C159   C     0.01785   0.95547   0.77021   0.00000  Uiso   1.00
C160   C     0.02088   0.95687   0.71696   0.00000  Uiso   1.00
C161   C     0.96096   0.04766   0.71471   0.00000  Uiso   1.00
C162   C     0.98826   1.00053   0.79588   0.00000  Uiso   1.00
H163   H     0.09182   0.93059   0.67140   0.00000  Uiso   1.00
N164   N     1.00137   0.00531   0.36960   0.00000  Uiso   1.00
N165   N     0.99351   0.00392   0.63434   0.00000  Uiso   1.00
H166   H     0.03117   0.88992   0.66112   0.00000  Uiso   1.00
H167   H     0.95458   0.08877   0.21179   0.00000  Uiso   1.00
H168   H     0.04939   0.92289   0.21601   0.00000  Uiso   1.00
H169   H     0.92376   0.13522   0.28639   0.00000  Uiso   1.00
H170   H     0.91361   0.08689   0.33931   0.00000  Uiso   1.00
H171   H     0.97628   0.12525   0.33648   0.00000  Uiso   1.00
H172   H     0.02975   0.88616   0.34072   0.00000  Uiso   1.00
H173   H     0.08207   0.87794   0.29205   0.00000  Uiso   1.00
H174   H     0.09214   0.92531   0.34389   0.00000  Uiso   1.00
O175   O     0.08003   0.06092   0.37067   0.00000  Uiso   1.00
O176   O     0.92212   0.95062   0.36575   0.00000  Uiso   1.00
H177   H     0.88656   0.92579   0.45231   0.00000  Uiso   1.00
H178   H     0.11170   0.08320   0.45950   0.00000  Uiso   1.00
H179   H     0.88408   0.92516   0.54477   0.00000  Uiso   1.00
H180   H     0.90926   0.12943   0.71160   0.00000  Uiso   1.00
H181   H     0.95672   0.11773   0.65972   0.00000  Uiso   1.00
H182   H     0.93679   0.08097   0.78787   0.00000  Uiso   1.00
H183   H     0.10845   0.08296   0.55177   0.00000  Uiso   1.00
H184   H     0.07483   0.87631   0.71756   0.00000  Uiso   1.00
O185   O     0.07185   0.06007   0.63806   0.00000  Uiso   1.00
O186   O     0.91461   0.94866   0.63337   0.00000  Uiso   1.00
H187   H     0.89445   0.07861   0.66311   0.00000  Uiso   1.00
loop_
_geom_bond_atom_site_label_1
_geom_bond_atom_site_label_2
_geom_bond_distance
_geom_bond_site_symmetry_2
_ccdc_geom_bond_type
O0     C6      1.305   1_566 A
O0     Yb3     2.160   1_655 S
Yb1    O4      2.170   .     S
Yb1    O17     2.129   .     S
Yb1    O19     2.105   .     S
Yb1    Yb3     2.843   1_644 S
Yb1    O9      2.156   1_545 S
Yb1    O10     2.142   1_644 S
Yb1    O11     2.158   1_655 S
Yb1    O16     2.147   1_645 S
C2     O16     1.282   1_655 A
C2     O17     1.278   1_565 A
C2     C133    1.470   1_665 S
Yb3    O10     2.123   .     S
Yb3    O12     2.134   .     S
Yb3    O13     2.158   .     S
Yb3    O0      2.160   1_455 S
Yb3    Yb1     2.843   1_466 S
Yb3    O7      2.145   1_465 S
Yb3    O18     2.168   1_565 S
Yb3    O19     2.149   1_466 S
O4     C6      1.306   .     A
C5     O18     1.231   1_655 D
C5     O19     1.407   1_556 S
C5     C50     1.471   1_655 S
C6     O0      1.305   1_544 A
C6     C106    1.468   1_544 S
O7     Yb3     2.145   1_645 S
O7     C8      1.282   1_655 A
C8     O7      1.282   1_455 A
C8     O12     1.275   1_545 A
C8     C162    1.472   1_445 S
O9     Yb1     2.156   1_565 S
O9     C14     1.229   1_655 D
O10    Yb1     2.142   1_466 S
O10    C14     1.387   1_556 S
O11    Yb1     2.158   1_455 S
O11    C15     1.305   1_544 A
O12    C8      1.275   1_565 A
O13    C15     1.302   .     A
C14    O9      1.229   1_455 D
C14    O10     1.387   1_554 S
C14    C21     1.468   1_455 S
C15    O11     1.305   1_566 A
C15    C77     1.463   1_556 S
O16    Yb1     2.147   1_465 S
O16    C2      1.282   1_455 A
O17    C2      1.278   1_545 A
O18    Yb3     2.168   1_545 S
O18    C5      1.231   1_455 D
O19    Yb3     2.149   1_644 S
O19    C5      1.407   1_554 S
H20    C47     1.084   .     S
C21    C22     1.399   1_554 A
C21    C26     1.405   1_655 A
C21    C14     1.468   1_655 S
C22    C23     1.403   .     A
C22    H55     1.084   .     S
C22    C21     1.399   1_556 A
C23    C27     1.505   .     S
C23    C24     1.414   1_556 A
C24    N52     1.443   .     S
C24    C23     1.414   1_554 A
C24    C25     1.416   1_655 A
C25    C26     1.404   .     A
C25    C28     1.502   .     S
C25    C24     1.416   1_455 A
C26    H56     1.086   .     S
C26    C21     1.405   1_455 A
C27    H57     1.114   .     S
C27    H58     1.109   .     S
C27    H59     1.111   .     S
C28    H60     1.114   .     S
C28    H61     1.114   .     S
C28    H62     1.113   .     S
C29    C30     1.406   .     A
C29    O64     1.374   .     S
C29    N52     1.371   1_456 A
C30    C34     1.405   .     A
C30    C31     1.410   1_456 A
C31    C32     1.409   .     A
C31    C30     1.410   1_654 A
C31    C37     1.414   1_554 A
C32    C33     1.406   .     A
C32    C40     1.408   .     A
C33    N52     1.370   .     A
C33    O63     1.376   .     S
C34    C35     1.400   .     A
C34    H65     1.087   .     S
C35    C36     1.405   .     A
C35    H67     1.085   .     S
C36    C41     1.405   .     A
C36    C37     1.409   1_455 A
C37    C31     1.414   1_556 A
C37    C36     1.409   1_655 A
C37    C38     1.409   1_556 A
C38    C39     1.405   .     A
C38    C42     1.405   .     A
C38    C37     1.409   1_554 A
C39    C40     1.399   .     A
C39    H71     1.085   .     S
C40    H66     1.087   .     S
C41    O74     1.374   .     S
C41    N53     1.371   1_455 A
C42    O73     1.372   .     S
C42    N53     1.370   1_554 A
C43    C49     1.415   .     A
C43    N53     1.438   .     S
C43    C48     1.412   1_656 A
C44    C49     1.501   .     S
C44    H68     1.109   .     S
C44    H69     1.109   .     S
C44    H75     1.111   .     S
C45    C49     1.406   .     A
C45    H70     1.085   .     S
C45    C50     1.402   1_655 A
C46    C48     1.506   .     S
C46    H51     1.111   .     S
C46    H54     1.111   .     S
C46    H72     1.112   .     S
C47    C48     1.402   .     A
C47    C50     1.402   1_554 A
C48    C43     1.412   1_454 A
C50    C45     1.402   1_455 A
C50    C47     1.402   1_556 A
C50    C5      1.471   1_455 S
N52    C29     1.371   1_654 A
N53    C41     1.371   1_655 A
N53    C42     1.370   1_556 A
H76    C103    1.083   .     S
C77    C78     1.401   .     A
C77    C82     1.400   1_565 A
C77    C15     1.463   1_554 S
C78    C79     1.405   .     A
C78    H111    1.085   1_554 S
C79    C80     1.414   .     A
C79    C83     1.505   .     S
C80    N108    1.440   .     S
C80    C81     1.414   1_565 A
C81    C82     1.405   .     A
C81    C84     1.503   .     S
C81    C80     1.414   1_545 A
C82    H112    1.086   .     S
C82    C77     1.400   1_545 A
C83    H113    1.112   .     S
C83    H115    1.112   .     S
C83    H114    1.110   1_554 S
C84    H117    1.113   .     S
C84    H118    1.113   .     S
C84    H116    1.112   1_554 S
C85    C86     1.406   .     A
C85    O120    1.375   .     S
C85    N108    1.369   1_556 A
C86    C90     1.406   .     A
C86    C87     1.410   1_556 A
C87    C93     1.417   .     A
C87    C86     1.410   1_554 A
C87    C88     1.408   1_565 A
C88    C89     1.406   .     A
C88    C96     1.408   .     A
C88    C87     1.408   1_545 A
C89    O119    1.375   .     S
C89    N108    1.371   1_545 A
C90    C91     1.398   .     A
C90    H121    1.087   .     S
C91    C92     1.407   .     A
C91    H123    1.086   .     S
C92    C97     1.406   .     A
C92    C93     1.409   1_556 A
C93    C92     1.409   1_554 A
C93    C94     1.409   1_565 A
C94    C95     1.405   .     A
C94    C93     1.409   1_545 A
C94    C98     1.406   1_545 A
C95    C96     1.398   .     A
C95    H127    1.085   .     S
C96    H122    1.086   .     S
C97    O130    1.375   .     S
C97    N109    1.373   1_556 A
C98    N109    1.371   .     A
C98    C94     1.406   1_565 A
C98    O129    1.375   1_565 S
C99    N109    1.442   .     S
C99    C104    1.414   1_565 A
C99    C105    1.417   1_554 A
C100   C105    1.509   .     S
C100   H124    1.113   .     S
C100   H125    1.112   .     S
C100   H131    1.110   .     S
C101   C105    1.405   .     A
C101   C106    1.398   .     A
C101   H126    1.086   .     S
C102   C104    1.506   .     S
C102   H107    1.104   .     S
C102   H110    1.107   .     S
C102   H128    1.111   .     S
C103   C104    1.404   .     A
C103   C106    1.399   1_544 A
C104   C99     1.414   1_545 A
C105   C99     1.417   1_556 A
C106   C103    1.399   1_566 A
C106   C6      1.468   1_566 S
N108   C85     1.369   1_554 A
N108   C89     1.371   1_565 A
N109   C97     1.373   1_554 A
H111   C78     1.085   1_556 S
H114   C83     1.110   1_556 S
H116   C84     1.112   1_556 S
O129   C98     1.375   1_545 S
H132   C159    1.084   .     S
C133   C134    1.401   1_455 A
C133   C138    1.401   1_545 A
C133   C2      1.470   1_445 S
C134   C135    1.405   .     A
C134   H167    1.085   .     S
C134   C133    1.401   1_655 A
C135   C136    1.414   .     A
C135   C139    1.505   .     S
C136   N164    1.443   .     S
C136   C137    1.413   1_645 A
C137   C138    1.402   .     A
C137   C140    1.503   .     S
C137   C136    1.413   1_465 A
C138   H168    1.084   .     S
C138   C133    1.401   1_565 A
C139   H169    1.113   .     S
C139   H170    1.112   .     S
C139   H171    1.109   .     S
C140   H172    1.112   .     S
C140   H173    1.110   .     S
C140   H174    1.111   .     S
C141   C142    1.405   .     A
C141   O176    1.375   .     S
C141   N164    1.370   1_565 A
C142   C146    1.405   .     A
C142   C143    1.410   1_565 A
C143   C149    1.415   .     A
C143   C142    1.410   1_545 A
C143   C144    1.409   1_655 A
C144   C145    1.405   .     A
C144   C152    1.408   .     A
C144   C143    1.409   1_455 A
C145   O175    1.374   .     S
C145   N164    1.369   1_455 A
C146   C147    1.399   .     A
C146   H177    1.085   .     S
C147   C148    1.406   .     A
C147   H179    1.083   .     S
C148   C153    1.407   .     A
C148   C149    1.409   1_565 A
C149   C148    1.409   1_545 A
C149   C150    1.409   1_655 A
C150   C151    1.404   .     A
C150   C154    1.406   .     A
C150   C149    1.409   1_455 A
C151   C152    1.397   .     A
C151   H183    1.083   .     S
C152   H178    1.084   .     S
C153   O186    1.375   .     S
C153   N165    1.369   1_565 A
C154   O185    1.375   .     S
C154   N165    1.371   1_455 A
C155   C161    1.414   .     A
C155   N165    1.440   .     S
C155   C160    1.410   1_645 A
C156   C161    1.502   .     S
C156   H180    1.114   .     S
C156   H181    1.111   .     S
C156   H187    1.112   .     S
C157   C161    1.404   .     A
C157   H182    1.084   .     S
C157   C162    1.400   1_545 A
C158   C160    1.505   .     S
C158   H163    1.116   .     S
C158   H166    1.114   .     S
C158   H184    1.117   .     S
C159   C160    1.405   .     A
C159   C162    1.402   1_455 A
C160   C155    1.410   1_465 A
C162   C157    1.400   1_565 A
C162   C159    1.402   1_655 A
C162   C8      1.472   1_665 S
N164   C141    1.370   1_545 A
N164   C145    1.369   1_655 A
N165   C153    1.369   1_545 A
N165   C154    1.371   1_655 A
