data_pcu+N505+E9
_audit_creation_date              2023-11-17
_audit_creation_method            'Materials Studio'
_symmetry_space_group_name_H-M    'P1'
_symmetry_Int_Tables_number       1
_symmetry_cell_setting            triclinic
loop_
_symmetry_equiv_pos_as_xyz
  x,y,z
_cell_length_a                    17.2888
_cell_length_b                    22.7567
_cell_length_c                    20.7068
_cell_angle_alpha                 85.4720
_cell_angle_beta                  20.4913
_cell_angle_gamma                 79.3269
loop_
_atom_site_label
_atom_site_type_symbol
_atom_site_fract_x
_atom_site_fract_y
_atom_site_fract_z
_atom_site_U_iso_or_equiv
_atom_site_adp_type
_atom_site_occupancy
Yb0    Yb    1.03862   0.09255  -0.09417   0.00000  Uiso   1.00
Yb1    Yb   -0.04389   0.91356   1.09808   0.00000  Uiso   1.00
C2     C    -0.02914   0.80632   1.07073   0.00000  Uiso   1.00
O3     O     0.21016   0.03163   0.70221   0.00000  Uiso   1.00
O4     O     0.90163   0.11330   0.91860   0.00000  Uiso   1.00
O5     O     0.82646   0.03433   0.10191   0.00000  Uiso   1.00
O6     O     0.75309   0.94598   1.16727   0.00000  Uiso   1.00
O7     O     1.18646   0.16400   0.77326   0.00000  Uiso   1.00
O8     O     0.86901   0.17690   0.07831   0.00000  Uiso   1.00
O9     O     0.78605   0.97440   0.30072   0.00000  Uiso   1.00
O10    O     0.09370   0.89260   0.08480   0.00000  Uiso   1.00
C11    C     1.06379   0.06621   0.77288   0.00000  Uiso   1.00
O12    O     0.23945   0.06042  -0.16137   0.00000  Uiso   1.00
O13    O     0.16781   0.97182   0.90233   0.00000  Uiso   1.00
O14    O    -0.19173   0.84202   0.23069   0.00000  Uiso   1.00
C15    C     0.75579   0.99461   0.13069   0.00000  Uiso   1.00
O16    O     0.12554   0.82935   0.92562   0.00000  Uiso   1.00
C17    C     1.02440   0.19975  -0.06714   0.00000  Uiso   1.00
C18    C    -0.06777   0.93970   0.23013   0.00000  Uiso   1.00
C19    C     0.23716   0.01168   0.87475   0.00000  Uiso   1.00
C20    C    -0.00404   0.62432   1.02425   0.00000  Uiso   1.00
N21    N     0.83825   0.65907   0.18747   0.00000  Uiso   1.00
N22    N     0.83039   0.71710   0.20216   0.00000  Uiso   1.00
C23    C    -0.01930   0.74238   1.05377   0.00000  Uiso   1.00
N24    N     0.13953   0.70757   0.88993   0.00000  Uiso   1.00
N25    N     0.14656   0.64961   0.87566   0.00000  Uiso   1.00
C26    C     0.00164   0.56070   1.00977   0.00000  Uiso   1.00
N27    N     0.14553   0.52752   0.85346   0.00000  Uiso   1.00
N28    N     0.14713   0.47020   0.84250   0.00000  Uiso   1.00
C29    C     0.00439   0.44404   0.98768   0.00000  Uiso   1.00
N30    N    -0.13938   0.47720   0.14392   0.00000  Uiso   1.00
N31    N    -0.14091   0.53451   0.15484   0.00000  Uiso   1.00
C32    C     0.00850   0.38062   0.97407   0.00000  Uiso   1.00
N33    N     0.85589   0.35574   0.12373   0.00000  Uiso   1.00
N34    N     0.85995   0.29817   0.11114   0.00000  Uiso   1.00
C35    C     0.01772   0.26333   0.94792   0.00000  Uiso   1.00
N36    N     0.17012   0.28818   0.79841   0.00000  Uiso   1.00
N37    N     0.16556   0.34582   0.81120   0.00000  Uiso   1.00
C38    C     0.40429   0.00480  -0.05920   0.00000  Uiso   1.00
N39    N     0.28286   0.05908   0.00218   0.00000  Uiso   1.00
N40    N     0.23055   0.06051  -0.01950   0.00000  Uiso   1.00
C41    C     0.29382   0.00769  -0.10022   0.00000  Uiso   1.00
N42    N     0.42073   0.95348   0.83353   0.00000  Uiso   1.00
N43    N     0.47363   0.95202   0.85498   0.00000  Uiso   1.00
C44    C     0.45611   0.00372  -0.03027   0.00000  Uiso   1.00
N45    N     0.56469   0.94940   0.92027   0.00000  Uiso   1.00
N46    N     0.60701   0.94876   0.95042   0.00000  Uiso   1.00
C47    C     0.54094   0.00232   0.03227   0.00000  Uiso   1.00
N48    N     0.43243   0.05664   0.08167   0.00000  Uiso   1.00
N49    N     0.39079   0.05728   0.05097   0.00000  Uiso   1.00
C50    C     0.59174   0.00128   0.06204   0.00000  Uiso   1.00
N51    N     0.52348   0.05420   0.14683   0.00000  Uiso   1.00
N52    N     0.57552   0.05278   0.16900   0.00000  Uiso   1.00
C53    C     0.69902  -0.00153   0.10577   0.00000  Uiso   1.00
N54    N     0.76116   0.94550   1.02612   0.00000  Uiso   1.00
N55    N     0.70908   0.94688   1.00424   0.00000  Uiso   1.00
C56    C     0.95036  -0.02248   0.40927   0.00000  Uiso   1.00
N57    N     1.05772   0.91967   0.30681   0.00000  Uiso   1.00
N58    N     0.04612   0.90769   0.25438   0.00000  Uiso   1.00
C59    C     0.92462  -0.04715   0.30423   0.00000  Uiso   1.00
N60    N     0.81513   0.01067   0.40827   0.00000  Uiso   1.00
N61    N     0.82743   0.02278   0.46031   0.00000  Uiso   1.00
C62    C     0.97241  -0.00927   0.45946   0.00000  Uiso   1.00
N63    N     0.88571   0.04958   0.54531   0.00000  Uiso   1.00
N64    N     0.91105   0.06142   0.58653   0.00000  Uiso   1.00
C65    C     1.02452   0.01494   0.54290   0.00000  Uiso   1.00
N66    N     1.11196   0.95612   0.45642   0.00000  Uiso   1.00
N67    N     1.08627   0.94427   0.41549   0.00000  Uiso   1.00
C68    C     1.04730   0.02822   0.59245   0.00000  Uiso   1.00
N69    N     1.16808   0.98285   0.54328   0.00000  Uiso   1.00
N70    N     0.18056   0.99501   0.59514   0.00000  Uiso   1.00
C71    C     1.07217   0.05295   0.69820   0.00000  Uiso   1.00
N72    N     0.95193   0.09815   0.74695   0.00000  Uiso   1.00
N73    N     0.94002   0.08611   0.69480   0.00000  Uiso   1.00
loop_
_geom_bond_atom_site_label_1
_geom_bond_atom_site_label_2
_geom_bond_distance
_geom_bond_site_symmetry_2
_ccdc_geom_bond_type
Yb0    O5      2.178   .     S
Yb0    O8      2.101   .     S
Yb0    O3      2.114   1_654 S
Yb0    O4      2.082   1_554 S
Yb0    O7      2.098   1_554 S
Yb0    O12     2.167   1_655 S
Yb1    O13     2.177   .     S
Yb1    O16     2.100   .     S
Yb1    O6      2.169   1_455 S
Yb1    O9      2.113   1_456 S
Yb1    O10     2.082   1_556 S
Yb1    O14     2.100   1_556 S
C2     O16     1.293   .     A
C2     C23     1.465   .     S
C2     O14     1.292   1_556 A
O3     Yb0     2.114   1_456 S
O3     C11     1.293   1_455 A
O4     C11     1.289   .     A
O4     Yb0     2.082   1_556 S
O5     C15     1.275   1_545 A
O6     Yb1     2.169   1_655 S
O6     C15     1.273   1_556 A
O7     Yb0     2.098   1_556 S
O7     C17     1.291   1_556 A
O8     C17     1.292   .     A
O9     Yb1     2.113   1_654 S
O9     C18     1.292   1_655 A
O10    C18     1.288   .     A
O10    Yb1     2.082   1_554 S
C11    C71     1.463   .     S
C11    O3      1.293   1_655 A
O12    Yb0     2.167   1_455 S
O12    C19     1.273   1_554 A
O13    C19     1.275   1_565 A
O14    Yb1     2.100   1_554 S
O14    C2      1.292   1_554 A
C15    O5      1.275   1_565 A
C15    O6      1.273   1_554 A
C15    C53     1.465   1_565 S
C17    O7      1.291   1_554 A
C17    C35     1.465   1_654 S
C18    O9      1.292   1_455 A
C18    C59     1.463   1_465 S
C19    O12     1.273   1_556 A
C19    O13     1.275   1_545 A
C19    C41     1.465   1_556 S
C20    N25     1.358   .     A
C20    C26     1.469   .     S
C20    N21     1.357   1_456 A
N21    N22     1.332   .     A
N21    C20     1.357   1_654 A
N22    C23     1.357   1_654 A
C23    N24     1.358   .     A
C23    N22     1.357   1_456 A
N24    N25     1.333   .     A
C26    N27     1.357   .     A
C26    N31     1.358   1_556 A
N27    N28     1.333   .     A
N28    C29     1.358   .     A
C29    C32     1.468   .     S
C29    N30     1.356   1_556 A
N30    N31     1.332   .     A
N30    C29     1.356   1_554 A
N31    C26     1.358   1_554 A
C32    N37     1.358   .     A
C32    N33     1.358   1_456 A
N33    N34     1.332   .     A
N33    C32     1.358   1_654 A
N34    C35     1.357   1_654 A
C35    N36     1.357   .     A
C35    N34     1.357   1_456 A
C35    C17     1.465   1_456 S
N36    N37     1.332   .     A
C38    N39     1.355   .     A
C38    C44     1.469   .     S
C38    N43     1.360   1_544 A
N39    N40     1.330   .     A
N40    C41     1.356   .     A
C41    N42     1.358   1_544 A
C41    C19     1.465   1_554 S
N42    N43     1.335   .     A
N42    C41     1.358   1_566 A
N43    C38     1.360   1_566 A
C44    N49     1.359   .     A
C44    N45     1.356   1_544 A
N45    N46     1.332   .     A
N45    C44     1.356   1_566 A
N46    C47     1.359   1_566 A
C47    N48     1.356   .     A
C47    C50     1.468   .     S
C47    N46     1.359   1_544 A
N48    N49     1.332   .     A
C50    N51     1.361   .     A
C50    N55     1.355   1_544 A
N51    N52     1.335   .     A
N52    C53     1.357   .     A
C53    N54     1.357   1_544 A
C53    C15     1.465   1_545 S
N54    N55     1.330   .     A
N54    C53     1.357   1_566 A
N55    C50     1.355   1_566 A
C56    N61     1.359   .     A
C56    C62     1.466   .     S
C56    N57     1.356   1_545 A
N57    C56     1.356   1_565 A
N57    N58     1.330   1_655 A
N58    N57     1.330   1_455 A
N58    C59     1.356   1_465 A
C59    N60     1.357   .     A
C59    N58     1.356   1_645 A
C59    C18     1.463   1_645 S
N60    N61     1.334   .     A
C62    N63     1.357   .     A
C62    N67     1.358   1_545 A
N63    N64     1.332   .     A
N64    C65     1.358   .     A
C65    C68     1.466   .     S
C65    N66     1.357   1_545 A
N66    N67     1.332   .     A
N66    C65     1.357   1_565 A
N67    C62     1.358   1_565 A
C68    N73     1.356   .     A
C68    N69     1.359   1_545 A
N69    C68     1.359   1_565 A
N69    N70     1.334   1_655 A
N70    N69     1.334   1_455 A
N70    C71     1.357   1_465 A
C71    N72     1.356   .     A
C71    N70     1.357   1_645 A
N72    N73     1.330   .     A
