data_pcu+N173+E229
_audit_creation_date              2023-11-17
_audit_creation_method            'Materials Studio'
_symmetry_space_group_name_H-M    'P1'
_symmetry_Int_Tables_number       1
_symmetry_cell_setting            triclinic
loop_
_symmetry_equiv_pos_as_xyz
  x,y,z
_cell_length_a                    21.7622
_cell_length_b                    22.2643
_cell_length_c                    22.1712
_cell_angle_alpha                 99.6962
_cell_angle_beta                  103.8330
_cell_angle_gamma                 62.8298
loop_
_atom_site_label
_atom_site_type_symbol
_atom_site_fract_x
_atom_site_fract_y
_atom_site_fract_z
_atom_site_U_iso_or_equiv
_atom_site_adp_type
_atom_site_occupancy
Gd0    Gd    0.04963   0.88506   0.99902   0.00000  Uiso   1.00
Gd1    Gd    0.95694   0.11838   0.00506   0.00000  Uiso   1.00
O2     O     0.87027   0.08209  -0.02049   0.00000  Uiso   1.00
O3     O     0.95164   0.98463   1.00830   0.00000  Uiso   1.00
O4     O     1.01991   0.92256   0.90130   0.00000  Uiso   1.00
O5     O     0.00980   0.01967   0.94700   0.00000  Uiso   1.00
O6     O     0.05185   0.83964   1.08171   0.00000  Uiso   1.00
O7     O     0.97695   0.84056   0.99820   0.00000  Uiso   1.00
O8     O     0.13621   0.92144   1.02582   0.00000  Uiso   1.00
C9     C     0.00107   0.82492   1.05470   0.00000  Uiso   1.00
O10    O     0.05564   0.01906  -0.00431   0.00000  Uiso   1.00
O11    O    -0.00268   0.98388   0.05727   0.00000  Uiso   1.00
C12    C     0.99509  -0.01394   0.89670   0.00000  Uiso   1.00
O13    O     0.98814   0.08078   0.10286   0.00000  Uiso   1.00
O14    O     0.95148   0.16384   0.92131   0.00000  Uiso   1.00
O15    O     0.02791   0.16411   0.00322   0.00000  Uiso   1.00
C16    C     0.88910   0.01872  -0.02193   0.00000  Uiso   1.00
C17    C     1.00175   0.17981  -0.05318   0.00000  Uiso   1.00
C18    C     0.01266   1.01731   0.10745   0.00000  Uiso   1.00
C19    C     0.11772   0.98479   1.02680   0.00000  Uiso   1.00
C20    C    -0.10371   0.73841   0.08233   0.00000  Uiso   1.00
C21    C    -0.08529   0.73565   0.14729   0.00000  Uiso   1.00
C22    C    -0.03867   0.76142   0.18148   0.00000  Uiso   1.00
C23    C    -0.00996   0.79000   0.15125   0.00000  Uiso   1.00
C24    C    -0.02820   0.79357   0.08637   0.00000  Uiso   1.00
C25    C    -0.07546   0.76795   0.05217   0.00000  Uiso   1.00
C26    C    -0.15229   0.70879   0.04500   0.00000  Uiso   1.00
H27    H    -0.10650   0.71308   0.17142   0.00000  Uiso   1.00
H28    H    -0.02446   0.75885   0.23152   0.00000  Uiso   1.00
H29    H     0.02602   0.80976   0.17858   0.00000  Uiso   1.00
H30    H     0.91002   0.77029   0.00200   0.00000  Uiso   1.00
H31    H    -0.17383   0.69124   0.07554   0.00000  Uiso   1.00
H32    H     0.80218   0.74916   0.01802   0.00000  Uiso   1.00
C33    C     1.09843   0.27281   0.91536   0.00000  Uiso   1.00
C34    C     0.07411   0.24042   0.94666   0.00000  Uiso   1.00
C35    C     0.14629   0.30377   0.95139   0.00000  Uiso   1.00
C36    C     0.06152   0.41994   0.96748   0.00000  Uiso   1.00
C37    C     0.02276   0.47185   0.01589   0.00000  Uiso   1.00
C38    C     1.07762   0.27616   0.85058   0.00000  Uiso   1.00
C39    C     1.03224   0.24841   0.81762   0.00000  Uiso   1.00
C40    C     1.02801   0.21291   0.91376   0.00000  Uiso   1.00
H41    H     1.09604   0.30066   0.82560   0.00000  Uiso   1.00
H42    H     1.01631   0.25119   0.76764   0.00000  Uiso   1.00
H43    H     0.97262   0.19537   0.82263   0.00000  Uiso   1.00
H44    H     0.09055   0.23752   0.99667   0.00000  Uiso   1.00
H45    H     1.16474   0.32364   0.92004   0.00000  Uiso   1.00
C46    C    -0.06845   0.59163   0.03288   0.00000  Uiso   1.00
C47    C    -0.02960   0.53763   0.98585   0.00000  Uiso   1.00
H48    H     0.09026   0.44025   0.94787   0.00000  Uiso   1.00
H49    H     0.99424   0.45152   0.03567   0.00000  Uiso   1.00
H50    H     0.06143   0.48179   0.05398   0.00000  Uiso   1.00
H51    H     0.02249   0.41043   0.92943   0.00000  Uiso   1.00
H52    H     0.19385   0.26358   0.97671   0.00000  Uiso   1.00
H53    H     0.90135   0.57330   0.05274   0.00000  Uiso   1.00
H54    H    -0.02937   0.60124   0.07072   0.00000  Uiso   1.00
N55    N    -0.11650   0.65342   0.00119   0.00000  Uiso   1.00
N56    N     1.11146   0.35713   0.99705   0.00000  Uiso   1.00
C57    C     1.00718   0.21726   0.84897   0.00000  Uiso   1.00
C58    C     0.28463   0.00584   0.09163   0.00000  Uiso   1.00
C59    C     0.25894   0.06862   0.12562   0.00000  Uiso   1.00
C60    C     0.18743   0.10373   0.12800   0.00000  Uiso   1.00
C61    C     0.14092   0.07684   0.09609   0.00000  Uiso   1.00
C62    C     0.16548   0.01451   0.06127   0.00000  Uiso   1.00
C63    C     0.23773   0.97872   0.06011   0.00000  Uiso   1.00
C64    C     0.36145  -0.03122   0.08845   0.00000  Uiso   1.00
H65    H     0.29431   0.09030   0.15024   0.00000  Uiso   1.00
H66    H     0.16801   0.15187   0.15475   0.00000  Uiso   1.00
H67    H     0.08635   0.10437   0.09984   0.00000  Uiso   1.00
H68    H     0.25726   0.93033   1.03359   0.00000  Uiso   1.00
H69    H     0.39259  -0.03756   0.13663   0.00000  Uiso   1.00
H70    H     0.37365   0.91761   0.06442   0.00000  Uiso   1.00
C71    C     0.72296   0.99533   0.91810   0.00000  Uiso   1.00
C72    C     0.76975   0.02293   0.94857   0.00000  Uiso   1.00
C73    C     0.64698   0.03056   0.92440   0.00000  Uiso   1.00
C74    C     0.55908   0.02292   0.96686   0.00000  Uiso   1.00
C75    C     0.54603  -0.02028   0.00426   0.00000  Uiso   1.00
C76    C     0.74797   0.93379   0.88212   0.00000  Uiso   1.00
C77    C     0.81865   0.90054   0.87652   0.00000  Uiso   1.00
C78    C     0.84129   0.98882   0.94436   0.00000  Uiso   1.00
H79    H     0.71269   0.91171   0.85835   0.00000  Uiso   1.00
H80    H     0.83759   0.85334   0.84829   0.00000  Uiso   1.00
H81    H     0.91899   0.90187   0.90125   0.00000  Uiso   1.00
H82    H     0.75085   0.07024  -0.02325   0.00000  Uiso   1.00
H83    H     0.61367   0.03737   0.87710   0.00000  Uiso   1.00
C84    C     0.45381  -0.02755   0.04961   0.00000  Uiso   1.00
C85    C     0.46951   0.01382   0.01256   0.00000  Uiso   1.00
H86    H     0.54715   0.07353  -0.00790   0.00000  Uiso   1.00
H87    H     0.55791   0.92909   0.97923   0.00000  Uiso   1.00
H88    H     0.58108  -0.02670   0.05068   0.00000  Uiso   1.00
H89    H     0.52391   0.02927   0.92042   0.00000  Uiso   1.00
H90    H     0.63472   0.08145   0.94904   0.00000  Uiso   1.00
H91    H     0.46545   0.92166   0.02496   0.00000  Uiso   1.00
H92    H     0.48729  -0.03305   0.09676   0.00000  Uiso   1.00
N93    N     0.37966   0.00773   0.05470   0.00000  Uiso   1.00
N94    N     0.63254   0.98960   0.95920   0.00000  Uiso   1.00
C95    C     0.86504   0.92799   0.90727   0.00000  Uiso   1.00
C96    C     0.08118  -0.00425   0.28008   0.00000  Uiso   1.00
C97    C     0.13816   0.93143   0.27954   0.00000  Uiso   1.00
C98    C     0.15413   0.89518   0.22317   0.00000  Uiso   1.00
C99    C     0.11331   0.92269   0.16693   0.00000  Uiso   1.00
C100   C     0.05587  -0.01336   0.16635   0.00000  Uiso   1.00
C101   C     0.04063   0.02332   0.22331   0.00000  Uiso   1.00
C102   C     0.06446   0.03441   0.34107   0.00000  Uiso   1.00
H103   H     0.17018   0.90956   0.32281   0.00000  Uiso   1.00
H104   H     0.19843   0.84577   0.22300   0.00000  Uiso   1.00
H105   H     0.12769   0.89442   0.12418   0.00000  Uiso   1.00
H106   H     0.99665   0.07304   0.22345   0.00000  Uiso   1.00
H107   H     0.11156   0.04093   0.36775   0.00000  Uiso   1.00
H108   H     0.02003   0.08542   0.33316   0.00000  Uiso   1.00
C109   C     0.93066   1.00916   0.72398   0.00000  Uiso   1.00
C110   C     0.97054   0.98156   0.78094   0.00000  Uiso   1.00
C111   C     0.95051   0.97212   0.66323   0.00000  Uiso   1.00
C112   C     0.98532   0.97862   0.57029   0.00000  Uiso   1.00
C113   C    -0.00231   0.02424   0.53522   0.00000  Uiso   1.00
C114   C     0.87145   0.07190   0.72411   0.00000  Uiso   1.00
C115   C     0.85261   0.10658   0.78028   0.00000  Uiso   1.00
C116   C     0.95228   0.01670   0.83769   0.00000  Uiso   1.00
H117   H     0.83986   0.09380   0.68068   0.00000  Uiso   1.00
H118   H     0.80663   0.15479   0.78008   0.00000  Uiso   1.00
H119   H     0.87577   0.10639   0.87917   0.00000  Uiso   1.00
H120   H     0.01629   0.93309   0.78117   0.00000  Uiso   1.00
H121   H     0.90569   0.96257   0.63523   0.00000  Uiso   1.00
C122   C     0.02981   0.03285   0.43580   0.00000  Uiso   1.00
C123   C     0.01653   0.98927   0.47244   0.00000  Uiso   1.00
H124   H     0.03421   0.93078   0.57852   0.00000  Uiso   1.00
H125   H     0.94913   0.07242   0.52764   0.00000  Uiso   1.00
H126   H     0.04121   0.03573   0.56329   0.00000  Uiso   1.00
H127   H     0.94217   0.96681   0.54165   0.00000  Uiso   1.00
H128   H     0.99709   0.92248   0.67141   0.00000  Uiso   1.00
H129   H    -0.01811   0.08152   0.42789   0.00000  Uiso   1.00
H130   H     0.07465   0.04287   0.46293   0.00000  Uiso   1.00
N131   N     0.04618   0.99662   0.37606   0.00000  Uiso   1.00
N132   N     0.96615   1.01338   0.62983   0.00000  Uiso   1.00
C133   C     0.89255   0.07908   0.83672   0.00000  Uiso   1.00
loop_
_geom_bond_atom_site_label_1
_geom_bond_atom_site_label_2
_geom_bond_distance
_geom_bond_site_symmetry_2
_ccdc_geom_bond_type
Gd0    O6      2.219   .     S
Gd0    O8      2.293   .     S
Gd0    O3      2.290   1_455 S
Gd0    O4      2.293   1_455 S
Gd0    O7      2.212   1_455 S
Gd0    O11     2.294   1_556 S
Gd1    O2      2.293   .     S
Gd1    O13     2.292   .     S
Gd1    O5      2.293   1_654 S
Gd1    O10     2.295   1_655 S
Gd1    O14     2.215   1_554 S
Gd1    O15     2.215   1_655 S
O2     C16     1.274   .     A
O3     Gd0     2.290   1_655 S
O3     C16     1.292   1_566 A
O4     Gd0     2.293   1_655 S
O4     C12     1.275   1_565 A
O5     Gd1     2.293   1_456 S
O5     C12     1.293   1_455 A
O6     C9      1.279   .     A
O7     Gd0     2.212   1_655 S
O7     C9      1.277   1_655 A
O8     C19     1.276   .     A
C9     O7      1.277   1_455 A
C9     C24     1.474   1_556 S
O10    Gd1     2.295   1_455 S
O10    C19     1.294   1_544 A
O11    C18     1.294   .     A
O11    Gd0     2.294   1_554 S
C12    C116    1.477   .     S
C12    O4      1.275   1_545 A
C12    O5      1.293   1_655 A
O13    C18     1.275   1_645 A
O14    Gd1     2.215   1_556 S
O14    C17     1.279   1_556 A
O15    Gd1     2.215   1_455 S
O15    C17     1.279   1_455 A
C16    O3      1.292   1_544 A
C16    C78     1.476   1_544 S
C17    O14     1.279   1_554 A
C17    O15     1.279   1_655 A
C17    C40     1.474   1_554 S
C18    O13     1.275   1_465 A
C18    C100    1.477   1_565 S
C19    O10     1.294   1_566 A
C19    C62     1.476   1_566 S
C20    C21     1.404   .     A
C20    C25     1.404   .     A
C20    C26     1.507   .     S
C21    C22     1.397   .     A
C21    H27     1.083   .     S
C22    C23     1.397   .     A
C22    H28     1.082   .     S
C23    C24     1.403   .     A
C23    H29     1.083   .     S
C24    C25     1.406   .     A
C24    C9      1.474   1_554 S
C25    H30     1.084   1_455 S
C26    H31     1.113   .     S
C26    N55     1.467   .     S
C26    H32     1.110   1_455 S
H30    C25     1.084   1_655 S
H32    C26     1.110   1_655 S
C33    C38     1.403   .     A
C33    C34     1.405   1_655 A
C33    C35     1.507   1_655 S
C34    H44     1.084   .     S
C34    C33     1.405   1_455 A
C34    C40     1.405   1_455 A
C35    H52     1.110   .     S
C35    C33     1.507   1_455 S
C35    H45     1.113   1_455 S
C35    N56     1.466   1_455 S
C36    H48     1.113   .     S
C36    H51     1.113   .     S
C36    C37     1.525   1_556 S
C36    N56     1.465   1_455 S
C37    H50     1.112   .     S
C37    C36     1.525   1_554 S
C37    C47     1.526   1_554 S
C37    H49     1.112   1_455 S
C38    C39     1.397   .     A
C38    H41     1.083   .     S
C39    H42     1.082   .     S
C39    C57     1.397   .     A
C40    C57     1.405   .     A
C40    C34     1.405   1_655 A
C40    C17     1.474   1_556 S
H43    C57     1.083   .     S
H45    C35     1.113   1_655 S
C46    H54     1.112   .     S
C46    N55     1.463   .     S
C46    C47     1.523   1_554 S
C46    H53     1.112   1_455 S
C47    C37     1.526   1_556 S
C47    C46     1.523   1_556 S
H49    C37     1.112   1_655 S
H53    C46     1.112   1_655 S
N56    C35     1.466   1_655 S
N56    C36     1.465   1_655 S
C58    C59     1.403   .     A
C58    C64     1.503   .     S
C58    C63     1.405   1_545 A
C59    C60     1.397   .     A
C59    H65     1.083   .     S
C60    C61     1.397   .     A
C60    H66     1.082   .     S
C61    C62     1.402   .     A
C61    H67     1.076   .     S
C62    C63     1.406   1_545 A
C62    C19     1.476   1_544 S
C63    C58     1.405   1_565 A
C63    C62     1.406   1_565 A
C63    H68     1.084   1_554 S
C64    H69     1.113   .     S
C64    N93     1.464   .     S
C64    H70     1.113   1_545 S
H68    C63     1.084   1_556 S
H70    C64     1.113   1_565 S
C71    C76     1.403   .     A
C71    C72     1.405   1_565 A
C71    C73     1.502   1_565 S
C72    C71     1.405   1_545 A
C72    C78     1.405   1_545 A
C72    H82     1.084   1_556 S
C73    H83     1.113   .     S
C73    H90     1.113   .     S
C73    C71     1.502   1_545 S
C73    N94     1.463   1_545 S
C74    H89     1.113   .     S
C74    C75     1.524   1_556 S
C74    H86     1.114   1_556 S
C74    N94     1.462   1_545 S
C75    C85     1.526   .     S
C75    H88     1.112   .     S
C75    C74     1.524   1_554 S
C75    H87     1.112   1_544 S
C76    C77     1.396   .     A
C76    H79     1.083   .     S
C77    H80     1.083   .     S
C77    C95     1.397   .     A
C78    C95     1.402   .     A
C78    C72     1.405   1_565 A
C78    C16     1.476   1_566 S
H81    C95     1.077   .     S
H82    C72     1.084   1_554 S
C84    C85     1.522   .     S
C84    H92     1.112   .     S
C84    N93     1.461   .     S
C84    H91     1.113   1_545 S
H86    C74     1.114   1_554 S
H87    C75     1.112   1_566 S
H91    C84     1.113   1_565 S
N94    C73     1.463   1_565 S
N94    C74     1.462   1_565 S
C96    C101    1.405   .     A
C96    C102    1.503   .     S
C96    C97     1.403   1_545 A
C97    C98     1.395   .     A
C97    H103    1.082   .     S
C97    C96     1.403   1_565 A
C98    C99     1.396   .     A
C98    H104    1.082   .     S
C99    H105    1.074   .     S
C99    C100    1.401   1_565 A
C100   C101    1.406   .     A
C100   C99     1.401   1_545 A
C100   C18     1.477   1_545 S
C101   H106    1.084   1_455 S
C102   H107    1.113   .     S
C102   H108    1.113   .     S
C102   N131    1.463   1_545 S
H106   C101    1.084   1_655 S
C109   C110    1.406   .     A
C109   C111    1.503   .     S
C109   C114    1.403   1_565 A
C110   C116    1.406   1_565 A
C110   H120    1.084   1_655 S
C111   H121    1.112   .     S
C111   H128    1.113   .     S
C111   N132    1.464   .     S
C112   H127    1.113   .     S
C112   N132    1.463   .     S
C112   C113    1.525   1_665 S
C112   H124    1.113   1_655 S
C113   H126    1.111   .     S
C113   C112    1.525   1_445 S
C113   C123    1.526   1_545 S
C113   H125    1.112   1_455 S
C114   C115    1.395   .     A
C114   H117    1.083   .     S
C114   C109    1.403   1_545 A
C115   H118    1.083   .     S
C115   C133    1.396   .     A
C116   C133    1.402   .     A
C116   C110    1.406   1_545 A
H119   C133    1.076   .     S
H120   C110    1.084   1_455 S
C122   H129    1.112   .     S
C122   H130    1.112   .     S
C122   C123    1.523   1_545 S
C122   N131    1.461   1_545 S
C123   C113    1.526   1_565 S
C123   C122    1.523   1_565 S
H124   C112    1.113   1_455 S
H125   C113    1.112   1_655 S
N131   C102    1.463   1_565 S
N131   C122    1.461   1_565 S
