data_pcu+N139+E15
_audit_creation_date              2023-11-17
_audit_creation_method            'Materials Studio'
_symmetry_space_group_name_H-M    'P1'
_symmetry_Int_Tables_number       1
_symmetry_cell_setting            triclinic
loop_
_symmetry_equiv_pos_as_xyz
  x,y,z
_cell_length_a                    13.4573
_cell_length_b                    8.4230
_cell_length_c                    13.0810
_cell_angle_alpha                 81.6252
_cell_angle_beta                  80.9067
_cell_angle_gamma                 56.1891
loop_
_atom_site_label
_atom_site_type_symbol
_atom_site_fract_x
_atom_site_fract_y
_atom_site_fract_z
_atom_site_U_iso_or_equiv
_atom_site_adp_type
_atom_site_occupancy
C0     C     0.10840  -0.08786   0.30999   0.00000  Uiso   1.00
Sm1    Sm    0.85945   0.08590   0.87664   0.00000  Uiso   1.00
Sm2    Sm    0.14620   0.94511   0.10532   0.00000  Uiso   1.00
C3     C     0.98077   0.26969  -0.06451   0.00000  Uiso   1.00
C4     C     0.30706   1.03840   0.05541   0.00000  Uiso   1.00
O5     O     0.01947   0.90046   0.77330   0.00000  Uiso   1.00
O6     O     0.85526   0.11840   0.70389   0.00000  Uiso   1.00
O7     O     0.10129   0.72826   0.08915   0.00000  Uiso   1.00
O8     O     0.92913   0.96800   1.03521   0.00000  Uiso   1.00
O9     O     0.67091   0.24877  -0.05707   0.00000  Uiso   1.00
O10    O     0.74556   0.96325   0.89677   0.00000  Uiso   1.00
O11    O     1.02314   0.03087   0.25352   0.00000  Uiso   1.00
O12    O     0.21097   0.81324   0.26000   0.00000  Uiso   1.00
O13    O     0.90544   0.30677   0.87399   0.00000  Uiso   1.00
O14    O     0.05828   0.09479  -0.04204   0.00000  Uiso   1.00
O15    O     0.32382   0.88703   1.02475   0.00000  Uiso   1.00
O16    O     0.20892   0.13654   0.11120   0.00000  Uiso   1.00
C17    C     0.96633   0.98096   0.69044   0.00000  Uiso   1.00
C18    C     0.00143   0.78895   1.05483   0.00000  Uiso   1.00
C19    C     0.65466   0.11479   0.93673   0.00000  Uiso   1.00
N20    N     0.85254   0.55441   0.03588   0.00000  Uiso   1.00
N21    N     0.85728   0.69265   0.06581   0.00000  Uiso   1.00
C22    C     0.96816   0.65678   0.03828   0.00000  Uiso   1.00
C23    C     0.03847   0.48598   0.98992   0.00000  Uiso   1.00
C24    C     0.96092   0.42606  -0.00976   0.00000  Uiso   1.00
H25    H     0.12933   0.42252   0.95354   0.00000  Uiso   1.00
H26    H     0.77526   0.55092   0.04438   0.00000  Uiso   1.00
H27    H     0.78488   0.81120   0.10294   0.00000  Uiso   1.00
N28    N     0.45020   0.29521   1.02417   0.00000  Uiso   1.00
N29    N     0.36042   0.27368   1.05643   0.00000  Uiso   1.00
C30    C     0.38956   0.10355   1.02953   0.00000  Uiso   1.00
C31    C     0.50443   1.01042  -0.02217   0.00000  Uiso   1.00
C32    C     0.53925   0.13855   0.97647   0.00000  Uiso   1.00
H33    H     0.55564   0.86981  -0.05209   0.00000  Uiso   1.00
H34    H     0.45078   0.41443   1.03658   0.00000  Uiso   1.00
H35    H     0.28091   0.37366   1.09741   0.00000  Uiso   1.00
N36    N     0.14735   0.76778   0.57840   0.00000  Uiso   1.00
N37    N     0.18461   0.74998   0.47891   0.00000  Uiso   1.00
C38    C     0.09398   0.88670   0.42355   0.00000  Uiso   1.00
C39    C     0.99349  -0.00287   0.49094   0.00000  Uiso   1.00
C40    C     0.03217   0.91638   0.58873   0.00000  Uiso   1.00
H41    H     0.90692   0.12096   0.47187   0.00000  Uiso   1.00
H42    H     0.20108   0.68096   0.63811   0.00000  Uiso   1.00
H43    H     0.27160   0.64730   0.44980   0.00000  Uiso   1.00
loop_
_geom_bond_atom_site_label_1
_geom_bond_atom_site_label_2
_geom_bond_distance
_geom_bond_site_symmetry_2
_ccdc_geom_bond_type
C0     O11     1.280   1_455 A
C0     O12     1.273   1_545 A
C0     C38     1.467   1_545 S
Sm1    O6      2.242   .     S
Sm1    O13     2.259   .     S
Sm1    O5      2.204   1_645 S
Sm1    O8      2.269   1_545 S
Sm1    O9      2.202   1_556 S
Sm1    O10     2.245   1_545 S
Sm2    O7      2.264   .     S
Sm2    O12     2.216   .     S
Sm2    O11     2.255   1_465 S
Sm2    O14     2.249   1_565 S
Sm2    O15     2.262   1_554 S
Sm2    O16     2.211   1_565 S
C3     C24     1.464   .     S
C3     O13     1.267   1_554 A
C3     O14     1.267   1_655 A
C4     O15     1.280   1_554 A
C4     O16     1.271   1_565 A
C4     C30     1.467   1_564 S
O5     Sm1     2.204   1_465 S
O5     C17     1.279   1_455 A
O6     C17     1.287   1_545 A
O7     C18     1.276   1_554 A
O8     Sm1     2.269   1_565 S
O8     C18     1.273   1_655 A
O9     Sm1     2.202   1_554 S
O9     C19     1.279   1_554 A
O10    Sm1     2.245   1_565 S
O10    C19     1.286   1_565 A
O11    C0      1.280   1_655 A
O11    Sm2     2.255   1_645 S
O12    C0      1.273   1_565 A
O13    C3      1.267   1_556 A
O14    Sm2     2.249   1_545 S
O14    C3      1.267   1_455 A
O15    Sm2     2.262   1_556 S
O15    C4      1.280   1_556 A
O16    Sm2     2.211   1_545 S
O16    C4      1.271   1_545 A
C17    O5      1.279   1_655 A
C17    O6      1.287   1_565 A
C17    C40     1.467   1_655 S
C18    O7      1.276   1_556 A
C18    O8      1.273   1_455 A
C18    C22     1.464   1_456 S
C19    C32     1.467   .     S
C19    O9      1.279   1_556 A
C19    O10     1.286   1_545 A
N20    N21     1.318   .     A
N20    C24     1.345   .     A
N20    H26     1.045   .     S
N21    C22     1.345   .     A
N21    H27     1.045   .     S
C22    C23     1.388   1_654 A
C22    C18     1.464   1_654 S
C23    H25     1.082   .     S
C23    C22     1.388   1_456 A
C23    C24     1.388   1_456 A
C24    C23     1.388   1_654 A
N28    N29     1.316   .     A
N28    C32     1.345   .     A
N28    H34     1.045   .     S
N29    C30     1.345   .     A
N29    H35     1.043   .     S
C30    C31     1.392   1_546 A
C30    C4      1.467   1_546 S
C31    H33     1.083   .     S
C31    C30     1.392   1_564 A
C31    C32     1.393   1_564 A
C32    C31     1.393   1_546 A
N36    N37     1.317   .     A
N36    C40     1.346   .     A
N36    H42     1.045   .     S
N37    C38     1.346   .     A
N37    H43     1.045   .     S
C38    C39     1.390   1_465 A
C38    C0      1.467   1_565 S
C39    H41     1.082   .     S
C39    C38     1.390   1_645 A
C39    C40     1.390   1_645 A
C40    C39     1.390   1_465 A
C40    C17     1.467   1_455 S
