data_pcu+N155+E15
_audit_creation_date              2023-11-17
_audit_creation_method            'Materials Studio'
_symmetry_space_group_name_H-M    'P1'
_symmetry_Int_Tables_number       1
_symmetry_cell_setting            triclinic
loop_
_symmetry_equiv_pos_as_xyz
  x,y,z
_cell_length_a                    10.0196
_cell_length_b                    10.5650
_cell_length_c                    13.1779
_cell_angle_alpha                 92.6711
_cell_angle_beta                  84.4354
_cell_angle_gamma                 94.3361
loop_
_atom_site_label
_atom_site_type_symbol
_atom_site_fract_x
_atom_site_fract_y
_atom_site_fract_z
_atom_site_U_iso_or_equiv
_atom_site_adp_type
_atom_site_occupancy
C0     C     0.01270   0.00470   0.31671   0.00000  Uiso   1.00
Ho1    Ho   -0.02084   0.00276   0.12324   0.00000  Uiso   1.00
C2     C     1.01833   0.99628   0.70075   0.00000  Uiso   1.00
Ho3    Ho    0.98976   0.99902   0.89839   0.00000  Uiso   1.00
O4     O     0.10824   0.01278   0.24572   0.00000  Uiso   1.00
O5     O     0.89553  -0.00652   0.28441   0.00000  Uiso   1.00
O6     O     0.19638  -0.01375   0.14524   0.00000  Uiso   1.00
O7     O     0.13508   1.03738   1.00381   0.00000  Uiso   1.00
C8     C     0.23700   0.00277   1.05603   0.00000  Uiso   1.00
C9     C     0.73066   0.98623  -0.05477   0.00000  Uiso   1.00
O10    O    -0.01710   0.79684   0.09187   0.00000  Uiso   1.00
O11    O     1.00002   0.79390   0.91651   0.00000  Uiso   1.00
O12    O     0.90178   0.98307   0.75044   0.00000  Uiso   1.00
O13    O     0.11507   1.00789   0.75698   0.00000  Uiso   1.00
O14    O     0.78209   0.97849   0.85683   0.00000  Uiso   1.00
O15    O     0.82744  -0.00734   0.01457   0.00000  Uiso   1.00
O16    O     0.98262   0.20599   0.92774   0.00000  Uiso   1.00
O17    O    -0.01065   0.20992   0.10387   0.00000  Uiso   1.00
C18    C     0.99197   0.26482   1.01660   0.00000  Uiso   1.00
C19    C    -0.00148   0.73945   0.00296   0.00000  Uiso   1.00
N20    N     0.15322   0.45123   1.02297   0.00000  Uiso   1.00
N21    N     0.15671   0.57546   1.01309   0.00000  Uiso   1.00
C22    C     0.03182   0.60714   1.00125   0.00000  Uiso   1.00
C23    C     0.94395   0.49827   0.00283   0.00000  Uiso   1.00
C24    C     0.02630   0.40164   1.01656   0.00000  Uiso   1.00
H25    H     0.83669   0.49077  -0.00314   0.00000  Uiso   1.00
H26    H     0.23703   0.40102   1.03186   0.00000  Uiso   1.00
H27    H     0.24268   0.63779   1.01692   0.00000  Uiso   1.00
N28    N     0.54691   0.12235  -0.07059   0.00000  Uiso   1.00
N29    N     0.41811   0.12667  -0.04128   0.00000  Uiso   1.00
C30    C     0.37771   0.02627   0.01681   0.00000  Uiso   1.00
C31    C     0.48675   0.95495   1.02716   0.00000  Uiso   1.00
C32    C     0.59164   0.01938  -0.03134   0.00000  Uiso   1.00
H33    H     0.48818   0.86677   1.06610   0.00000  Uiso   1.00
H34    H     0.60381   0.18978  -0.11608   0.00000  Uiso   1.00
H35    H     0.35876   0.19759  -0.06051   0.00000  Uiso   1.00
N36    N     0.17338   0.02489   0.54661   0.00000  Uiso   1.00
N37    N     0.17182   0.02989   0.44710   0.00000  Uiso   1.00
C38    C     0.04412   0.00889   0.42346   0.00000  Uiso   1.00
C39    C     0.95881   0.99049   0.51296   0.00000  Uiso   1.00
C40    C     0.04659   0.00172   0.58943   0.00000  Uiso   1.00
H41    H     0.85061   0.97251   0.52099   0.00000  Uiso   1.00
H42    H     0.26016   0.03969   0.58461   0.00000  Uiso   1.00
H43    H     0.25780   0.04808   0.39652   0.00000  Uiso   1.00
loop_
_geom_bond_atom_site_label_1
_geom_bond_atom_site_label_2
_geom_bond_distance
_geom_bond_site_symmetry_2
_ccdc_geom_bond_type
C0     O4      1.273   .     A
C0     C38     1.469   .     S
C0     O5      1.282   1_455 A
Ho1    O4      2.158   .     S
Ho1    O6      2.244   .     S
Ho1    O17     2.209   .     S
Ho1    O5      2.210   1_455 S
Ho1    O7      2.131   1_544 S
Ho1    O10     2.198   1_545 S
Ho1    O15     2.181   1_455 S
C2     O12     1.284   .     A
C2     O13     1.271   1_655 A
C2     C40     1.470   1_665 S
Ho3    O11     2.202   .     S
Ho3    O12     2.211   .     S
Ho3    O14     2.195   .     S
Ho3    O7      2.113   1_655 S
Ho3    O13     2.145   1_655 S
Ho3    O15     2.122   1_566 S
Ho3    O16     2.208   1_565 S
O5     C0      1.282   1_655 A
O5     Ho1     2.210   1_655 S
O6     C8      1.222   1_554 D
O7     Ho1     2.131   1_566 S
O7     Ho3     2.113   1_455 S
O7     C8      1.366   1_565 S
C8     O6      1.222   1_556 D
C8     O7      1.366   1_545 S
C8     C30     1.461   1_556 S
C9     O14     1.229   1_554 D
C9     O15     1.391   1_565 S
C9     C32     1.462   1_565 S
O10    C19     1.295   .     A
O10    Ho1     2.198   1_565 S
O11    C19     1.298   1_656 A
O13    C2      1.271   1_455 A
O13    Ho3     2.145   1_455 S
O14    C9      1.229   1_556 D
O15    Ho1     2.181   1_655 S
O15    Ho3     2.122   1_544 S
O15    C9      1.391   1_545 S
O16    C18     1.308   .     A
O16    Ho3     2.208   1_545 S
O17    C18     1.309   1_454 A
C18    O17     1.309   1_656 A
C18    C24     1.460   1_655 S
C19    O11     1.298   1_454 A
C19    C22     1.460   1_554 S
N20    N21     1.322   .     A
N20    C24     1.347   .     A
N20    H26     1.045   .     S
N21    C22     1.345   .     A
N21    H27     1.048   .     S
C22    C23     1.394   1_456 A
C22    C19     1.460   1_556 S
C23    H25     1.082   .     S
C23    C22     1.394   1_654 A
C23    C24     1.389   1_654 A
C24    C23     1.389   1_456 A
C24    C18     1.460   1_455 S
N28    N29     1.314   .     A
N28    C32     1.350   .     A
N28    H34     1.051   .     S
N29    C30     1.351   .     A
N29    H35     1.046   .     S
C30    C31     1.394   1_544 A
C30    C8      1.461   1_554 S
C31    H33     1.086   .     S
C31    C30     1.394   1_566 A
C31    C32     1.395   1_566 A
C32    C31     1.395   1_544 A
C32    C9      1.462   1_545 S
N36    N37     1.316   .     A
N36    C40     1.349   .     A
N36    H42     1.043   .     S
N37    C38     1.346   .     A
N37    H43     1.048   .     S
C38    C39     1.400   1_445 A
C39    H41     1.082   .     S
C39    C38     1.400   1_665 A
C39    C40     1.396   1_665 A
C40    C39     1.396   1_445 A
C40    C2      1.470   1_445 S
