data_pcu+N144+E229
_audit_creation_date              2023-11-17
_audit_creation_method            'Materials Studio'
_symmetry_space_group_name_H-M    'P1'
_symmetry_Int_Tables_number       1
_symmetry_cell_setting            triclinic
loop_
_symmetry_equiv_pos_as_xyz
  x,y,z
_cell_length_a                    24.9735
_cell_length_b                    19.6368
_cell_length_c                    22.8785
_cell_angle_alpha                 120.0029
_cell_angle_beta                  134.9255
_cell_angle_gamma                 73.3163
loop_
_atom_site_label
_atom_site_type_symbol
_atom_site_fract_x
_atom_site_fract_y
_atom_site_fract_z
_atom_site_U_iso_or_equiv
_atom_site_adp_type
_atom_site_occupancy
C0     C     0.22813   0.01695   0.12822   0.00000  Uiso   1.00
Er1    Er    0.94504   0.97442   0.95025   0.00000  Uiso   1.00
Er2    Er    0.05999   0.96651  -0.00224   0.00000  Uiso   1.00
C3     C     0.06659   0.99386   0.14536   0.00000  Uiso   1.00
O4     O     0.07457   0.09394   0.04945   0.00000  Uiso   1.00
C5     C    -0.01733   0.80644  -0.09399   0.00000  Uiso   1.00
C6     C     0.93740   0.94654   0.80216   0.00000  Uiso   1.00
C7     C     0.83028   0.02243   0.96809   0.00000  Uiso   1.00
O8     O     0.22832   0.04124   0.18866   0.00000  Uiso   1.00
O9     O     0.17456  -0.04490   1.04319   0.00000  Uiso   1.00
O10    O     0.00924   0.95058   0.86563   0.00000  Uiso   1.00
O11    O     0.89543   0.95422   0.81744   0.00000  Uiso   1.00
O12    O     0.04294   0.83998  -0.05670   0.00000  Uiso   1.00
O13    O     0.93093   0.84741   0.90117   0.00000  Uiso   1.00
C14    C     1.02043   0.13474   0.03716   0.00000  Uiso   1.00
O15    O     0.95960   0.10088  -0.00185   0.00000  Uiso   1.00
O16    O     0.10795   0.98109   0.12819   0.00000  Uiso   1.00
O17    O     0.99557   0.99516   0.08395   0.00000  Uiso   1.00
O18    O     0.83373  -0.01182   0.90670   0.00000  Uiso   1.00
O19    O     0.83371  -0.01168  -0.09313   0.00000  Uiso   1.00
C20    C     0.97769   0.59814   0.87173   0.00000  Uiso   1.00
C21    C     0.97625   0.55582   0.79971   0.00000  Uiso   1.00
C22    C     0.97238   0.59487   0.75996   0.00000  Uiso   1.00
C23    C     0.97177   0.67666   0.79313   0.00000  Uiso   1.00
C24    C     0.97270   0.71986   0.86461   0.00000  Uiso   1.00
C25    C    -0.02600   0.68040   0.90265   0.00000  Uiso   1.00
C26    C     0.99303   0.55683   0.92214   0.00000  Uiso   1.00
H27    H     0.97947   0.49261   0.77498   0.00000  Uiso   1.00
H28    H     0.97179   0.56181   0.70481   0.00000  Uiso   1.00
H29    H     0.97328   0.70701   0.76545   0.00000  Uiso   1.00
H30    H    -0.02286   0.71402   0.95975   0.00000  Uiso   1.00
H31    H     1.00388   0.49469   0.89433   0.00000  Uiso   1.00
H32    H     0.04560   0.58693   0.99562   0.00000  Uiso   1.00
C33    C    -0.01021   0.35214   0.11469   0.00000  Uiso   1.00
C34    C     0.98011   0.26990   0.08063   0.00000  Uiso   1.00
C35    C    -0.06244   0.40407   0.12650   0.00000  Uiso   1.00
C36    C     0.85947   0.46535   0.01982   0.00000  Uiso   1.00
C37    C    -0.12447   0.43783   0.95841   0.00000  Uiso   1.00
C38    C     0.05039   0.38589   0.14104   0.00000  Uiso   1.00
C39    C     0.09752   0.33760   0.12787   0.00000  Uiso   1.00
C40    C     0.02818   0.22103   0.06879   0.00000  Uiso   1.00
H41    H     0.05874   0.44912   0.16778   0.00000  Uiso   1.00
H42    H     0.14351   0.36355   0.14657   0.00000  Uiso   1.00
H43    H     0.11572   0.21933   0.06990   0.00000  Uiso   1.00
H44    H     0.93584   0.24445   0.06468   0.00000  Uiso   1.00
H45    H    -0.03495   0.46572   0.17883   0.00000  Uiso   1.00
C46    C     0.93025   0.49356   0.92956   0.00000  Uiso   1.00
C47    C     0.88073   0.50812  -0.04987   0.00000  Uiso   1.00
H48    H     0.80048   0.48294  -0.01684   0.00000  Uiso   1.00
H49    H    -0.07006   0.41053   0.98876   0.00000  Uiso   1.00
H50    H     0.82933   0.39253   0.88883   0.00000  Uiso   1.00
H51    H    -0.10136   0.51894   0.08454   0.00000  Uiso   1.00
H52    H     0.92645   0.38204   0.15380   0.00000  Uiso   1.00
H53    H    -0.01075   0.48944   0.98956   0.00000  Uiso   1.00
H54    H     0.90875   0.43710   0.86743   0.00000  Uiso   1.00
N55    N     0.92956   0.55872   0.91490   0.00000  Uiso   1.00
N56    N    -0.13609   0.40021   0.03725   0.00000  Uiso   1.00
C57    C     0.08372   0.25548   0.08758   0.00000  Uiso   1.00
C58    C     0.37591   0.07069   0.14779   0.00000  Uiso   1.00
C59    C     0.35381   0.14440   0.14508   0.00000  Uiso   1.00
C60    C     0.29261   0.17484   0.13831   0.00000  Uiso   1.00
C61    C     0.25491   0.13307   0.13695   0.00000  Uiso   1.00
C62    C     0.27547   0.06008   0.13891   0.00000  Uiso   1.00
C63    C     0.33583   0.02818   0.14381   0.00000  Uiso   1.00
C64    C     0.44128   0.03787   0.15398   0.00000  Uiso   1.00
H65    H     0.38251   0.17712   0.14568   0.00000  Uiso   1.00
H66    H     0.27124   0.22835   0.12902   0.00000  Uiso   1.00
H67    H     0.20687   0.15463   0.13017   0.00000  Uiso   1.00
H68    H     0.35130  -0.02901   1.14465   0.00000  Uiso   1.00
H69    H     0.49408   0.07676   0.22227   0.00000  Uiso   1.00
H70    H     0.44761  -0.02291   0.14843   0.00000  Uiso   1.00
C71    C     0.68746   0.09823   0.99337   0.00000  Uiso   1.00
C72    C     0.75276   0.06734   1.00912   0.00000  Uiso   1.00
C73    C     0.68275   0.12379   1.06334   0.00000  Uiso   1.00
C74    C     0.59362   0.09169   1.05951   0.00000  Uiso   1.00
C75    C     0.56776   0.02847   1.05762   0.00000  Uiso   1.00
C76    C     0.62805   0.10989   0.91396   0.00000  Uiso   1.00
C77    C     0.63470   0.09305   0.85239   0.00000  Uiso   1.00
C78    C     0.75904   0.04900   0.94654   0.00000  Uiso   1.00
H79    H     0.57733   0.13379   0.90075   0.00000  Uiso   1.00
H80    H     0.58932   1.10371   0.79210   0.00000  Uiso   1.00
H81    H     0.70553   0.05463   0.82275   0.00000  Uiso   1.00
H82    H     0.79908   0.05860   1.07058   0.00000  Uiso   1.00
H83    H     0.65330   0.17863   1.06506   0.00000  Uiso   1.00
C84    C     0.49348   0.00886   0.08704   0.00000  Uiso   1.00
C85    C     0.50928   0.05968   1.06649   0.00000  Uiso   1.00
H86    H     0.62478   0.14315   1.12872   0.00000  Uiso   1.00
H87    H     0.54113  -0.02579   0.99162   0.00000  Uiso   1.00
H88    H     0.61787   0.01376   0.11548   0.00000  Uiso   1.00
H89    H     0.54323   0.11166   1.00693   0.00000  Uiso   1.00
H90    H     0.74063   0.13998   1.13356   0.00000  Uiso   1.00
H91    H     0.47852  -0.05391   0.03611   0.00000  Uiso   1.00
H92    H     0.54650   0.01389   0.15716   0.00000  Uiso   1.00
N93    N     0.42929   0.03687   0.08097   0.00000  Uiso   1.00
N94    N     0.64267   0.05997   1.04001   0.00000  Uiso   1.00
C95    C     0.70026   0.06384   0.86920   0.00000  Uiso   1.00
C96    C     0.08911   0.03872   0.34403   0.00000  Uiso   1.00
C97    C     0.16821   0.04038   0.41202   0.00000  Uiso   1.00
C98    C     0.21332   0.02515   0.39236   0.00000  Uiso   1.00
C99    C     0.18016   0.00930   0.30534   0.00000  Uiso   1.00
C100   C     0.10107   1.00789   0.23634   0.00000  Uiso   1.00
C101   C     0.05574   1.02213   0.25615   0.00000  Uiso   1.00
C102   C     0.04137   0.05740   0.36680   0.00000  Uiso   1.00
H103   H     0.19486   0.05349   0.48026   0.00000  Uiso   1.00
H104   H     0.27419   0.02596   0.44495   0.00000  Uiso   1.00
H105   H     0.21648  -0.00070   0.29239   0.00000  Uiso   1.00
H106   H     0.99466   1.02124   0.20372   0.00000  Uiso   1.00
H107   H     0.06020   0.11877   0.42206   0.00000  Uiso   1.00
H108   H     0.98021   0.05392   0.30567   0.00000  Uiso   1.00
C109   C     0.91351   0.89816   0.60138   0.00000  Uiso   1.00
C110   C    -0.05261   0.91721   0.69018   0.00000  Uiso   1.00
C111   C    -0.03881   0.88166   0.57909   0.00000  Uiso   1.00
C112   C    -0.00324   0.92499   0.52783   0.00000  Uiso   1.00
C113   C    -0.01611   0.98552   0.49676   0.00000  Uiso   1.00
C114   C     0.83404   0.89347   0.53255   0.00000  Uiso   1.00
C115   C     0.78913   0.90774   0.55220   0.00000  Uiso   1.00
C116   C     0.90239   0.93099   0.71031   0.00000  Uiso   1.00
H117   H     0.80710   0.87904   0.46390   0.00000  Uiso   1.00
H118   H     0.72809   0.90463   0.49923   0.00000  Uiso   1.00
H119   H     0.78634   0.93548   0.65298   0.00000  Uiso   1.00
H120   H     0.00886   0.92090   0.74348   0.00000  Uiso   1.00
H121   H    -0.06012   0.82267   0.51965   0.00000  Uiso   1.00
C122   C     0.00742   0.02064   0.42372   0.00000  Uiso   1.00
C123   C     0.02610   0.96757   0.46579   0.00000  Uiso   1.00
H124   H     0.05860   0.92728   0.58611   0.00000  Uiso   1.00
H125   H     0.92198   0.98306   0.43879   0.00000  Uiso   1.00
H126   H     0.00493   0.04581   0.55448   0.00000  Uiso   1.00
H127   H    -0.02452   0.86498   0.46928   0.00000  Uiso   1.00
H128   H     0.02164   0.88039   0.63808   0.00000  Uiso   1.00
H129   H     0.94569   0.01042   0.36198   0.00000  Uiso   1.00
H130   H     0.02287   0.08345   0.47553   0.00000  Uiso   1.00
N131   N     0.05106   0.00158   0.39779   0.00000  Uiso   1.00
N132   N    -0.04437   0.94292   0.55685   0.00000  Uiso   1.00
C133   C     0.82293   0.92642   0.64047   0.00000  Uiso   1.00
loop_
_geom_bond_atom_site_label_1
_geom_bond_atom_site_label_2
_geom_bond_distance
_geom_bond_site_symmetry_2
_ccdc_geom_bond_type
C0     O8      1.213   .     D
C0     C62     1.461   .     S
C0     O9      1.394   1_554 S
Er1    O11     2.164   .     S
Er1    O13     2.179   .     S
Er1    O15     2.176   1_566 S
Er1    O17     2.171   1_556 S
Er1    O18     2.172   1_565 S
Er1    O19     2.174   1_566 S
Er2    O12     2.161   .     S
Er2    O16     2.171   .     S
Er2    O4      2.179   1_565 S
Er2    O9      2.232   1_564 S
Er2    O10     2.171   1_554 S
C3     O16     1.269   .     A
C3     C100    1.477   .     S
C3     O17     1.269   1_455 A
O4     Er2     2.179   1_545 S
O4     C14     1.271   1_455 A
C5     O12     1.273   .     A
C5     O13     1.273   1_454 A
C5     C24     1.466   1_454 S
C6     O11     1.272   .     A
C6     C116    1.480   .     S
C6     O10     1.273   1_655 A
C7     O18     1.275   .     A
C7     C78     1.472   .     S
C7     O19     1.271   1_556 A
O9     C0      1.394   1_556 S
O9     Er2     2.232   1_546 S
O10    Er2     2.171   1_556 S
O10    C6      1.273   1_455 A
O13    C5      1.273   1_656 A
C14    O15     1.272   .     A
C14    O4      1.271   1_655 A
C14    C40     1.482   1_655 S
O15    Er1     2.176   1_544 S
O17    Er1     2.171   1_554 S
O17    C3      1.269   1_655 A
O18    Er1     2.172   1_545 S
O19    Er1     2.174   1_544 S
O19    C7      1.271   1_554 A
C20    C21     1.404   .     A
C20    C26     1.506   .     S
C20    C25     1.408   1_655 A
C21    C22     1.398   .     A
C21    H27     1.082   .     S
C22    C23     1.393   .     A
C22    H28     1.083   .     S
C23    C24     1.402   .     A
C23    H29     1.087   .     S
C24    C25     1.406   1_655 A
C24    C5      1.466   1_656 S
C25    H30     1.082   .     S
C25    C20     1.408   1_455 A
C25    C24     1.406   1_455 A
C26    H31     1.116   .     S
C26    N55     1.464   .     S
C26    H32     1.111   1_655 S
H32    C26     1.111   1_455 S
C33    C35     1.508   .     S
C33    C38     1.408   .     A
C33    C34     1.405   1_455 A
C34    H44     1.082   .     S
C34    C33     1.405   1_655 A
C34    C40     1.405   1_655 A
C35    H45     1.112   .     S
C35    N56     1.476   .     S
C35    H52     1.113   1_455 S
C36    H48     1.116   .     S
C36    C37     1.529   1_654 S
C36    H51     1.115   1_655 S
C36    N56     1.474   1_655 S
C37    H49     1.112   .     S
C37    C36     1.529   1_456 S
C37    C47     1.535   1_456 S
C37    H50     1.112   1_455 S
C38    C39     1.396   .     A
C38    H41     1.081   .     S
C39    H42     1.089   .     S
C39    C57     1.397   .     A
C40    C57     1.404   .     A
C40    C34     1.405   1_455 A
C40    C14     1.482   1_455 S
H43    C57     1.072   .     S
C46    H54     1.107   .     S
C46    N55     1.469   .     S
C46    C47     1.522   1_556 S
C46    H53     1.117   1_655 S
C47    C37     1.535   1_654 S
C47    C46     1.522   1_554 S
H50    C37     1.112   1_655 S
H51    C36     1.115   1_455 S
H52    C35     1.113   1_655 S
H53    C46     1.117   1_455 S
N56    C36     1.474   1_455 S
C58    C59     1.409   .     A
C58    C63     1.408   .     A
C58    C64     1.504   .     S
C59    C60     1.397   .     A
C59    H65     1.081   .     S
C60    C61     1.392   .     A
C60    H66     1.084   .     S
C61    C62     1.389   .     A
C61    H67     1.074   .     S
C62    C63     1.402   .     A
C63    H68     1.083   1_554 S
C64    H69     1.113   .     S
C64    H70     1.111   .     S
C64    N93     1.464   .     S
H68    C63     1.083   1_556 S
C71    C72     1.406   .     A
C71    C73     1.502   .     S
C71    C76     1.403   .     A
C72    C78     1.405   .     A
C72    H82     1.084   .     S
C73    H83     1.116   .     S
C73    H90     1.116   .     S
C73    N94     1.468   .     S
C74    C75     1.526   .     S
C74    H86     1.116   .     S
C74    H89     1.111   .     S
C74    N94     1.464   .     S
C75    C85     1.527   .     S
C75    H87     1.112   .     S
C75    H88     1.112   1_556 S
C76    C77     1.398   .     A
C76    H79     1.084   .     S
C77    C95     1.396   .     A
C77    H80     1.084   1_545 S
C78    C95     1.404   .     A
H80    C77     1.084   1_565 S
H81    C95     1.082   .     S
C84    H91     1.109   .     S
C84    H92     1.119   .     S
C84    N93     1.465   .     S
C84    C85     1.526   1_554 S
C85    C84     1.526   1_556 S
H88    C75     1.112   1_554 S
C96    C97     1.403   .     A
C96    C102    1.504   .     S
C96    C101    1.406   1_545 A
C97    C98     1.396   .     A
C97    H103    1.084   .     S
C98    C99     1.395   .     A
C98    H104    1.082   .     S
C99    H105    1.081   .     S
C99    C100    1.406   1_545 A
C100   C101    1.407   .     A
C100   C99     1.406   1_565 A
C101   C96     1.406   1_565 A
C101   H106    1.084   1_455 S
C102   H107    1.111   .     S
C102   N131    1.465   .     S
C102   H108    1.114   1_455 S
H106   C101    1.084   1_655 S
H108   C102    1.114   1_655 S
C109   C114    1.405   .     A
C109   C110    1.406   1_655 A
C109   C111    1.501   1_655 S
C110   H120    1.086   .     S
C110   C109    1.406   1_455 A
C110   C116    1.407   1_455 A
C111   H121    1.109   .     S
C111   H128    1.112   .     S
C111   N132    1.463   .     S
C111   C109    1.501   1_455 S
C112   C113    1.525   .     S
C112   H124    1.112   .     S
C112   H127    1.114   .     S
C112   N132    1.463   .     S
C113   C123    1.526   .     S
C113   H125    1.111   1_455 S
C113   H126    1.111   1_565 S
C114   C115    1.395   .     A
C114   H117    1.082   .     S
C115   H118    1.080   .     S
C115   C133    1.398   .     A
C116   C133    1.407   .     A
C116   C110    1.407   1_655 A
H119   C133    1.083   .     S
C122   H130    1.114   .     S
C122   N131    1.462   .     S
C122   C123    1.523   1_545 S
C122   H129    1.109   1_455 S
C123   C122    1.523   1_565 S
H125   C113    1.111   1_655 S
H126   C113    1.111   1_545 S
H129   C122    1.109   1_655 S
