data_pcu+N248+E35
_audit_creation_date              2023-11-17
_audit_creation_method            'Materials Studio'
_symmetry_space_group_name_H-M    'P1'
_symmetry_Int_Tables_number       1
_symmetry_cell_setting            triclinic
loop_
_symmetry_equiv_pos_as_xyz
  x,y,z
_cell_length_a                    15.5871
_cell_length_b                    14.2763
_cell_length_c                    17.9957
_cell_angle_alpha                 83.4193
_cell_angle_beta                  90.2967
_cell_angle_gamma                 70.7936
loop_
_atom_site_label
_atom_site_type_symbol
_atom_site_fract_x
_atom_site_fract_y
_atom_site_fract_z
_atom_site_U_iso_or_equiv
_atom_site_adp_type
_atom_site_occupancy
O0     O     0.87257   1.00478   0.93920   0.00000  Uiso   1.00
Yb1    Yb    1.01775  -0.00169   0.08930   0.00000  Uiso   1.00
C2     C     1.02165   0.99912   0.22889   0.00000  Uiso   1.00
Yb3    Yb    0.01371   0.99389   0.92708   0.00000  Uiso   1.00
O4     O     0.87129   0.01043   0.06760   0.00000  Uiso   1.00
C5     C     0.97354   0.17773   0.94038   0.00000  Uiso   1.00
C6     C     0.83006   0.01527   0.00186   0.00000  Uiso   1.00
O7     O     0.98811   0.07681   0.81699   0.00000  Uiso   1.00
C8     C     0.01645  -0.00418   0.78640   0.00000  Uiso   1.00
O9     O     0.94482   0.89163   0.09652   0.00000  Uiso   1.00
O10    O     0.05491   0.87796   1.02029   0.00000  Uiso   1.00
O11    O     0.14927   0.01462   0.06961   0.00000  Uiso   1.00
O12    O     0.04301   0.91562   0.83216   0.00000  Uiso   1.00
O13    O     0.15043   0.99676   0.94414   0.00000  Uiso   1.00
C14    C    -0.00960   0.83985   0.05137   0.00000  Uiso   1.00
C15    C     0.18811   1.00880   1.00552   0.00000  Uiso   1.00
O16    O     0.05772   0.92011   0.19764   0.00000  Uiso   1.00
O17    O     0.98288   0.07880   0.18393   0.00000  Uiso   1.00
O18    O    -0.01370   0.14821   0.87855   0.00000  Uiso   1.00
O19    O     0.96407   0.10554  -0.00512   0.00000  Uiso   1.00
C20    C    -0.04178   0.56902  -0.00034   0.00000  Uiso   1.00
C21    C     0.90018   0.62502   1.04994   0.00000  Uiso   1.00
C22    C     0.90970   0.71446   1.06601   0.00000  Uiso   1.00
C23    C    -0.02343   0.74828   0.03203   0.00000  Uiso   1.00
C24    C     0.03101   0.69227  -0.01980   0.00000  Uiso   1.00
N25    N     0.02076   0.60508  -0.03439   0.00000  Uiso   1.00
C26    C    -0.04499   0.47070  -0.01589   0.00000  Uiso   1.00
N27    N    -0.01584   0.43761  -0.08240   0.00000  Uiso   1.00
C28    C    -0.01213   0.34569  -0.09873   0.00000  Uiso   1.00
C29    C    -0.03672   0.28031  -0.04566   0.00000  Uiso   1.00
C30    C     0.93316   0.31250   1.02314   0.00000  Uiso   1.00
C31    C     0.92841   0.40773   1.03815   0.00000  Uiso   1.00
H32    H     0.86539   0.75674   1.10545   0.00000  Uiso   1.00
H33    H     0.08272   0.71670  -0.04773   0.00000  Uiso   1.00
H34    H     0.01233   0.32292  -0.15221   0.00000  Uiso   1.00
H35    H     0.91458   0.26357   1.06582   0.00000  Uiso   1.00
H36    H     0.84782   0.60055   1.07644   0.00000  Uiso   1.00
H37    H     0.90734   0.42997   1.09248   0.00000  Uiso   1.00
C38    C     0.45664   1.02776  -0.00635   0.00000  Uiso   1.00
C39    C     0.40990   0.02148  -0.07168   0.00000  Uiso   1.00
C40    C     0.32240   0.01622  -0.06756   0.00000  Uiso   1.00
C41    C     0.28068   0.01623   0.00134   0.00000  Uiso   1.00
C42    C     0.32926   1.02281   1.06537   0.00000  Uiso   1.00
N43    N     0.41472   1.02797   1.05996   0.00000  Uiso   1.00
C44    C     0.55132   1.03020  -0.00660   0.00000  Uiso   1.00
N45    N     0.59889   1.01485   1.06005   0.00000  Uiso   1.00
C46    C     0.68683   1.01233   1.06458   0.00000  Uiso   1.00
C47    C     0.73265   0.02469  -0.00085   0.00000  Uiso   1.00
C48    C     0.68444   0.04288  -0.06992   0.00000  Uiso   1.00
C49    C     0.59415   0.04643  -0.07309   0.00000  Uiso   1.00
H50    H     0.28773   0.01142  -0.11857   0.00000  Uiso   1.00
H51    H     0.29986   1.02306   1.11970   0.00000  Uiso   1.00
H52    H     0.72125   0.99861   1.11913   0.00000  Uiso   1.00
H53    H     0.71659   0.05406  -0.12184   0.00000  Uiso   1.00
H54    H     0.43992   0.01857  -0.12559   0.00000  Uiso   1.00
H55    H     0.55948   0.06200  -0.12745   0.00000  Uiso   1.00
C56    C     1.02818  -0.01037   0.46721   0.00000  Uiso   1.00
C57    C     0.07998  -0.09408   0.43371   0.00000  Uiso   1.00
C58    C     0.07754  -0.09032   0.35608   0.00000  Uiso   1.00
C59    C     0.02510  -0.00323   0.31110   0.00000  Uiso   1.00
C60    C     0.97631   1.07989   0.34625   0.00000  Uiso   1.00
N61    N     0.97881   1.07418   0.42232   0.00000  Uiso   1.00
C62    C     1.02611  -0.01140   0.54973   0.00000  Uiso   1.00
N63    N     0.99791   1.07711   0.57915   0.00000  Uiso   1.00
C64    C     0.99391   1.08179   0.65424   0.00000  Uiso   1.00
C65    C     0.01917  -0.00633   0.70459   0.00000  Uiso   1.00
C66    C     0.04734  -0.09813   0.67561   0.00000  Uiso   1.00
C67    C     0.05044  -0.10113   0.59862   0.00000  Uiso   1.00
H68    H     0.11711  -0.15578   0.33115   0.00000  Uiso   1.00
H69    H     0.93539   1.14872   0.31345   0.00000  Uiso   1.00
H70    H     0.97131   1.15420   0.67443   0.00000  Uiso   1.00
H71    H     0.06650  -0.16795   0.71249   0.00000  Uiso   1.00
H72    H     0.12308  -0.16165   0.46644   0.00000  Uiso   1.00
H73    H     0.07011  -0.17329   0.57838   0.00000  Uiso   1.00
loop_
_geom_bond_atom_site_label_1
_geom_bond_atom_site_label_2
_geom_bond_distance
_geom_bond_site_symmetry_2
_ccdc_geom_bond_type
O0     C6      1.309   1_566 A
O0     Yb3     2.168   1_655 S
Yb1    O4      2.260   .     S
Yb1    O17     2.136   .     S
Yb1    O19     2.116   .     S
Yb1    Yb3     2.928   1_644 S
Yb1    O9      2.173   1_545 S
Yb1    O10     2.161   1_644 S
Yb1    O11     2.165   1_655 S
Yb1    O16     2.113   1_645 S
C2     O16     1.279   1_655 A
C2     O17     1.283   1_565 A
C2     C59     1.476   1_665 S
Yb3    O10     2.149   .     S
Yb3    O12     2.118   .     S
Yb3    O13     2.166   .     S
Yb3    O0      2.168   1_455 S
Yb3    Yb1     2.928   1_466 S
Yb3    O7      2.151   1_465 S
Yb3    O18     2.176   1_565 S
Yb3    O19     2.067   1_466 S
O4     C6      1.327   .     A
C5     O18     1.229   1_655 D
C5     O19     1.384   1_556 S
C5     C29     1.471   1_656 S
C6     C47     1.480   .     S
C6     O0      1.309   1_544 A
O7     Yb3     2.151   1_645 S
O7     C8      1.284   1_655 A
C8     C65     1.477   .     S
C8     O7      1.284   1_455 A
C8     O12     1.276   1_545 A
O9     Yb1     2.173   1_565 S
O9     C14     1.229   1_655 D
O10    Yb1     2.161   1_466 S
O10    C14     1.384   1_556 S
O11    Yb1     2.165   1_455 S
O11    C15     1.304   1_544 A
O12    C8      1.276   1_565 A
O13    C15     1.303   .     A
C14    C23     1.472   .     S
C14    O9      1.229   1_455 D
C14    O10     1.384   1_554 S
C15    O11     1.304   1_566 A
C15    C41     1.483   1_566 S
O16    Yb1     2.113   1_465 S
O16    C2      1.279   1_455 A
O17    C2      1.283   1_545 A
O18    Yb3     2.176   1_545 S
O18    C5      1.229   1_455 D
O19    Yb3     2.067   1_644 S
O19    C5      1.384   1_554 S
C20    N25     1.362   .     A
C20    C26     1.479   .     S
C20    C21     1.405   1_454 A
C21    C22     1.395   .     A
C21    H36     1.081   .     S
C21    C20     1.405   1_656 A
C22    H32     1.084   .     S
C22    C23     1.401   1_656 A
C23    C24     1.401   .     A
C23    C22     1.401   1_454 A
C24    N25     1.360   .     A
C24    H33     1.083   .     S
C26    N27     1.362   .     A
C26    C31     1.405   1_454 A
N27    C28     1.360   .     A
C28    C29     1.402   .     A
C28    H34     1.082   .     S
C29    C30     1.400   1_454 A
C29    C5      1.471   1_454 S
C30    C31     1.395   .     A
C30    H35     1.084   .     S
C30    C29     1.400   1_656 A
C31    H37     1.082   .     S
C31    C26     1.405   1_656 A
C38    C44     1.488   .     S
C38    C39     1.407   1_565 A
C38    N43     1.363   1_554 A
C39    C40     1.392   .     A
C39    H54     1.078   .     S
C39    C38     1.407   1_545 A
C40    C41     1.403   .     A
C40    H50     1.083   .     S
C41    C42     1.404   1_544 A
C41    C15     1.483   1_544 S
C42    N43     1.361   .     A
C42    H51     1.082   .     S
C42    C41     1.404   1_566 A
N43    C38     1.363   1_556 A
C44    N45     1.364   1_554 A
C44    C49     1.406   1_565 A
N45    C46     1.361   .     A
N45    C44     1.364   1_556 A
C46    H52     1.082   .     S
C46    C47     1.404   1_566 A
C47    C48     1.402   .     A
C47    C46     1.404   1_544 A
C48    C49     1.392   .     A
C48    H53     1.083   .     S
C49    H55     1.079   .     S
C49    C44     1.406   1_545 A
C56    C62     1.484   .     S
C56    C57     1.407   1_655 A
C56    N61     1.364   1_545 A
C57    C58     1.392   .     A
C57    H72     1.081   .     S
C57    C56     1.407   1_455 A
C58    C59     1.401   .     A
C58    H68     1.084   .     S
C59    C60     1.404   1_445 A
C59    C2      1.476   1_445 S
C60    N61     1.362   .     A
C60    H69     1.082   .     S
C60    C59     1.404   1_665 A
N61    C56     1.364   1_565 A
C62    N63     1.364   1_545 A
C62    C67     1.406   1_655 A
N63    C64     1.361   .     A
N63    C62     1.364   1_565 A
C64    H70     1.083   .     S
C64    C65     1.403   1_665 A
C65    C66     1.401   .     A
C65    C64     1.403   1_445 A
C66    C67     1.392   .     A
C66    H71     1.083   .     S
C67    H73     1.080   .     S
C67    C62     1.406   1_455 A
