data_pcu+N144+E225
_audit_creation_date              2023-11-17
_audit_creation_method            'Materials Studio'
_symmetry_space_group_name_H-M    'P1'
_symmetry_Int_Tables_number       1
_symmetry_cell_setting            triclinic
loop_
_symmetry_equiv_pos_as_xyz
  x,y,z
_cell_length_a                    21.3617
_cell_length_b                    19.8937
_cell_length_c                    19.7720
_cell_angle_alpha                 87.4543
_cell_angle_beta                  115.1289
_cell_angle_gamma                 76.3262
loop_
_atom_site_label
_atom_site_type_symbol
_atom_site_fract_x
_atom_site_fract_y
_atom_site_fract_z
_atom_site_U_iso_or_equiv
_atom_site_adp_type
_atom_site_occupancy
C0     C     0.20820   0.00219   0.09703   0.00000  Uiso   1.00
Er1    Er    0.93750   1.00027   0.96167   0.00000  Uiso   1.00
Er2    Er    0.05852   0.97896   0.00907   0.00000  Uiso   1.00
C3     C     0.01681   0.97117   0.13597   0.00000  Uiso   1.00
O4     O     0.04402   0.09125   0.00451   0.00000  Uiso   1.00
C5     C     0.01257   0.84568  -0.01639   0.00000  Uiso   1.00
C6     C     0.98779   1.00571   0.83880   0.00000  Uiso   1.00
C7     C     0.81886   0.00993   0.97630   0.00000  Uiso   1.00
O8     O     0.17512   0.04022   0.12472   0.00000  Uiso   1.00
O9     O     0.17715  -0.04407   1.05189   0.00000  Uiso   1.00
O10    O     0.04920   0.98748   0.89567   0.00000  Uiso   1.00
O11    O     0.93165   1.01692   0.84906   0.00000  Uiso   1.00
O12    O     0.06835   0.86756   0.01110   0.00000  Uiso   1.00
O13    O     0.95027   0.88934   0.95709   0.00000  Uiso   1.00
C14    C     0.98255   0.13372  -0.01323   0.00000  Uiso   1.00
O15    O     0.92761   0.11074  -0.03229   0.00000  Uiso   1.00
O16    O     0.07063   0.96962   0.12359   0.00000  Uiso   1.00
O17    O     0.95442   0.98141   0.07997   0.00000  Uiso   1.00
O18    O     0.82068   0.02011   0.91384   0.00000  Uiso   1.00
O19    O     0.88135  -0.00449   0.03204   0.00000  Uiso   1.00
C20    C     1.01994   0.76995  -0.01791   0.00000  Uiso   1.00
C21    C     0.95862   0.74523  -0.04466   0.00000  Uiso   1.00
C22    C     0.96537   0.67386  -0.04690   0.00000  Uiso   1.00
C23    C     0.03393   0.62550  -0.02139   0.00000  Uiso   1.00
C24    C     0.09475   0.65037   1.00389   0.00000  Uiso   1.00
C25    C     0.08812   0.72174   1.00628   0.00000  Uiso   1.00
C26    C    -0.00331   0.52291  -0.01026   0.00000  Uiso   1.00
H27    H     0.08949   0.19872   1.03119   0.00000  Uiso   1.00
H28    H     0.07805   0.32282   1.03695   0.00000  Uiso   1.00
H29    H     0.84810   0.36489  -0.04785   0.00000  Uiso   1.00
H30    H     0.85935   0.23968  -0.05131   0.00000  Uiso   1.00
H31    H     0.03432   0.42871   0.95854   0.00000  Uiso   1.00
O32    O    -0.04846   0.42601  -0.00532   0.00000  Uiso   1.00
O33    O     0.04367   0.55350  -0.02456   0.00000  Uiso   1.00
C34    C    -0.02480   0.20944  -0.01144   0.00000  Uiso   1.00
C35    C     0.03630   0.23442   1.01304   0.00000  Uiso   1.00
C36    C     0.02963   0.30578   1.01537   0.00000  Uiso   1.00
C37    C    -0.03871   0.35397  -0.00837   0.00000  Uiso   1.00
C38    C     0.90076   0.32877  -0.03115   0.00000  Uiso   1.00
C39    C     0.90736   0.25734  -0.03306   0.00000  Uiso   1.00
C40    C    -0.00186   0.45683  -0.02015   0.00000  Uiso   1.00
H41    H     0.91694   0.65683  -0.06972   0.00000  Uiso   1.00
H42    H     0.14761   0.61404   1.02213   0.00000  Uiso   1.00
H43    H     0.90526   0.78108  -0.06408   0.00000  Uiso   1.00
H44    H     0.96055   0.55109   0.01109   0.00000  Uiso   1.00
H45    H     0.13635   0.73915   1.02677   0.00000  Uiso   1.00
C46    C     0.28093   0.00528   1.10987   0.00000  Uiso   1.00
C47    C     0.32198  -0.04504   1.08592   0.00000  Uiso   1.00
C48    C     0.38814  -0.03979   1.09192   0.00000  Uiso   1.00
C49    C     0.41364   0.01729   1.11996   0.00000  Uiso   1.00
C50    C     0.37486   0.06511   0.14789   0.00000  Uiso   1.00
C51    C     0.30898   0.05953   0.14279   0.00000  Uiso   1.00
C52    C     0.49129   0.01138   1.06120   0.00000  Uiso   1.00
H53    H     0.80478  -0.01464   0.10537   0.00000  Uiso   1.00
H54    H     0.69619  -0.02010   0.11524   0.00000  Uiso   1.00
H55    H     0.57341   0.03493   0.87238   0.00000  Uiso   1.00
H56    H     0.68317   0.03754   0.86219   0.00000  Uiso   1.00
H57    H     0.58879   0.03702   0.10590   0.00000  Uiso   1.00
O58    O     0.56091   0.00526   0.99473   0.00000  Uiso   1.00
O59    O     0.47803   0.02688   0.12340   0.00000  Uiso   1.00
C60    C     0.75226   0.01233   0.98312   0.00000  Uiso   1.00
C61    C     0.75441  -0.00284   0.05423   0.00000  Uiso   1.00
C62    C     0.69175  -0.00483   0.05987   0.00000  Uiso   1.00
C63    C     0.62530   0.01000   0.99412   0.00000  Uiso   1.00
C64    C     0.62363   0.02498   0.92348   0.00000  Uiso   1.00
C65    C     0.68622   0.02649   0.91781   0.00000  Uiso   1.00
C66    C     0.55100   0.01849   0.05919   0.00000  Uiso   1.00
H67    H     0.41891  -0.07993   1.07393   0.00000  Uiso   1.00
H68    H     0.39495   0.10799   0.17186   0.00000  Uiso   1.00
H69    H     0.30279  -0.08836   1.06192   0.00000  Uiso   1.00
H70    H     0.45224  -0.00390   1.01234   0.00000  Uiso   1.00
H71    H     0.27948   0.09882   0.16285   0.00000  Uiso   1.00
C72    C     1.02664   0.96069   0.21480   0.00000  Uiso   1.00
C73    C     1.08743  -0.02823   0.27431   0.00000  Uiso   1.00
C74    C     1.09695  -0.03799   0.34890   0.00000  Uiso   1.00
C75    C     0.04532   0.94239   0.36486   0.00000  Uiso   1.00
C76    C    -0.01493   0.93048   0.30603   0.00000  Uiso   1.00
C77    C    -0.02388   0.93887   0.23162   0.00000  Uiso   1.00
C78    C     0.00939   0.98385   0.45546   0.00000  Uiso   1.00
H79    H     0.09618   0.96684   0.79781   0.00000  Uiso   1.00
H80    H     0.08772   0.97629   0.67097   0.00000  Uiso   1.00
H81    H     0.85864   0.07256   0.57679   0.00000  Uiso   1.00
H82    H     0.86704   0.06518   0.70459   0.00000  Uiso   1.00
H83    H     0.04396   0.92913   0.56324   0.00000  Uiso   1.00
O84    O    -0.03672   1.02936   0.53892   0.00000  Uiso   1.00
O85    O     0.05593   0.93157   0.43972   0.00000  Uiso   1.00
C86    C    -0.01795   1.01330   0.76136   0.00000  Uiso   1.00
C87    C     0.04380   0.98935   0.75015   0.00000  Uiso   1.00
C88    C     0.03877   0.99412   0.67723   0.00000  Uiso   1.00
C89    C    -0.02862   1.02229   0.61357   0.00000  Uiso   1.00
C90    C    -0.08958   0.04870   0.62499   0.00000  Uiso   1.00
C91    C    -0.08464   0.04402   0.69800   0.00000  Uiso   1.00
C92    C     0.00943   0.97681   0.52283   0.00000  Uiso   1.00
H93    H     1.14395  -0.02931   0.39422   0.00000  Uiso   1.00
H94    H    -0.05431   0.91388   0.31821   0.00000  Uiso   1.00
H95    H     1.12742  -0.01169   0.26313   0.00000  Uiso   1.00
H96    H    -0.02643   0.03055   0.41383   0.00000  Uiso   1.00
H97    H    -0.06926   0.92653   0.18784   0.00000  Uiso   1.00
loop_
_geom_bond_atom_site_label_1
_geom_bond_atom_site_label_2
_geom_bond_distance
_geom_bond_site_symmetry_2
_ccdc_geom_bond_type
C0     O8      1.218   .     D
C0     O9      1.394   1_554 S
C0     C46     1.481   1_554 S
Er1    O11     2.182   .     S
Er1    O13     2.170   .     S
Er1    O15     2.171   1_566 S
Er1    O17     2.210   1_556 S
Er1    O18     2.185   1_565 S
Er1    O19     2.201   1_566 S
Er2    O12     2.173   .     S
Er2    O16     2.161   .     S
Er2    O4      2.174   1_565 S
Er2    O9      2.223   1_564 S
Er2    O10     2.160   1_554 S
C3     O16     1.267   .     A
C3     O17     1.281   1_455 A
C3     C72     1.480   1_455 S
O4     Er2     2.174   1_545 S
O4     C14     1.272   1_455 A
C5     O12     1.273   .     A
C5     O13     1.273   1_454 A
C5     C20     1.480   1_455 S
C6     O11     1.270   .     A
C6     O10     1.266   1_655 A
C6     C86     1.481   1_655 S
C7     O18     1.261   .     A
C7     C60     1.475   .     S
C7     O19     1.273   1_556 A
O9     C0      1.394   1_556 S
O9     Er2     2.223   1_546 S
O10    Er2     2.160   1_556 S
O10    C6      1.266   1_455 A
O13    C5      1.273   1_656 A
C14    O15     1.274   .     A
C14    O4      1.272   1_655 A
C14    C34     1.481   1_655 S
O15    Er1     2.171   1_544 S
O17    Er1     2.210   1_554 S
O17    C3      1.281   1_655 A
O18    Er1     2.185   1_545 S
O19    Er1     2.201   1_544 S
O19    C7      1.273   1_554 A
C20    C21     1.406   .     A
C20    C25     1.406   1_654 A
C20    C5      1.480   1_655 S
C21    C22     1.398   .     A
C21    H43     1.084   .     S
C22    H41     1.082   .     S
C22    C23     1.410   1_655 A
C23    O33     1.406   .     S
C23    C22     1.410   1_455 A
C23    C24     1.399   1_554 A
C24    C25     1.398   .     A
C24    H42     1.083   .     S
C24    C23     1.399   1_556 A
C25    H45     1.083   .     S
C25    C20     1.406   1_456 A
C26    O33     1.404   .     S
C26    C40     1.333   .     D
C26    H44     1.087   1_455 S
H27    C35     1.083   .     S
H28    C36     1.082   .     S
H29    C38     1.083   .     S
H30    C39     1.083   .     S
H31    C40     1.087   1_556 S
O32    C37     1.407   .     S
O32    C40     1.405   .     S
C34    C35     1.406   1_554 S
C34    C39     1.406   1_455 D
C34    C14     1.481   1_455 S
C35    C36     1.398   .     A
C35    C34     1.406   1_556 S
C36    C37     1.410   1_556 A
C37    C36     1.410   1_554 A
C37    C38     1.399   1_455 A
C38    C39     1.398   .     A
C38    C37     1.399   1_655 A
C39    C34     1.406   1_655 D
C40    H31     1.087   1_554 S
H44    C26     1.087   1_655 S
C46    C47     1.405   .     A
C46    C51     1.409   1_556 A
C46    C0      1.481   1_556 S
C47    C48     1.397   .     A
C47    H69     1.084   .     S
C48    C49     1.409   .     A
C48    H67     1.083   .     S
C49    C50     1.400   1_556 A
C49    O59     1.407   1_556 S
C50    C51     1.399   .     A
C50    H68     1.083   .     S
C50    C49     1.400   1_554 A
C51    H71     1.083   .     S
C51    C46     1.409   1_554 A
C52    H70     1.088   .     S
C52    O59     1.406   1_556 S
C52    C66     1.333   1_556 D
H53    C61     1.082   .     S
H54    C62     1.081   .     S
H55    C64     1.083   .     S
H56    C65     1.083   .     S
H57    C66     1.086   .     S
O58    C63     1.406   .     S
O58    C66     1.404   1_556 S
O59    C49     1.407   1_554 S
O59    C52     1.406   1_554 S
C60    C65     1.403   .     A
C60    C61     1.404   1_556 A
C61    C62     1.399   .     A
C61    C60     1.404   1_554 A
C62    C63     1.412   1_554 A
C63    C64     1.399   .     A
C63    C62     1.412   1_556 A
C64    C65     1.395   .     A
C66    C52     1.333   1_554 D
C66    O58     1.404   1_554 S
C72    C73     1.407   1_565 A
C72    C77     1.406   1_655 A
C72    C3      1.480   1_655 S
C73    C74     1.398   .     A
C73    H95     1.083   .     S
C73    C72     1.407   1_545 A
C74    H93     1.083   .     S
C74    C75     1.399   1_645 A
C75    C76     1.401   .     A
C75    O85     1.397   .     S
C75    C74     1.399   1_465 A
C76    C77     1.398   .     A
C76    H94     1.082   .     S
C77    H97     1.081   .     S
C77    C72     1.406   1_455 A
C78    O85     1.403   .     S
C78    C92     1.333   .     D
C78    H96     1.090   1_565 S
H79    C87     1.082   .     S
H80    C88     1.083   .     S
H81    C90     1.083   1_655 S
H82    C91     1.083   1_655 S
H83    C92     1.088   .     S
O84    C89     1.408   .     S
O84    C92     1.405   .     S
C86    C87     1.406   .     A
C86    C91     1.406   1_565 A
C86    C6      1.481   1_455 S
C87    C88     1.397   .     A
C88    C89     1.410   .     A
C89    C90     1.400   1_565 A
C90    C91     1.399   .     A
C90    H81     1.083   1_455 S
C90    C89     1.400   1_545 A
C91    H82     1.083   1_455 S
C91    C86     1.406   1_545 A
H96    C78     1.090   1_545 S
