data_pcu+N205+E225
_audit_creation_date              2023-11-17
_audit_creation_method            'Materials Studio'
_symmetry_space_group_name_H-M    'P1'
_symmetry_Int_Tables_number       1
_symmetry_cell_setting            triclinic
loop_
_symmetry_equiv_pos_as_xyz
  x,y,z
_cell_length_a                    21.6764
_cell_length_b                    23.6549
_cell_length_c                    17.1018
_cell_angle_alpha                 109.4650
_cell_angle_beta                  133.4327
_cell_angle_gamma                 90.5587
loop_
_atom_site_label
_atom_site_type_symbol
_atom_site_fract_x
_atom_site_fract_y
_atom_site_fract_z
_atom_site_U_iso_or_equiv
_atom_site_adp_type
_atom_site_occupancy
Y0     Y     0.06698   0.09537   0.02630   0.00000  Uiso   1.00
Y1     Y     0.92468   0.90636   0.97897   0.00000  Uiso   1.00
C2     C     0.79291   0.93217   0.95517   0.00000  Uiso   1.00
C3     C     1.06672   0.04689   0.17414   0.00000  Uiso   1.00
C4     C     0.02955   0.19942  -0.00300   0.00000  Uiso   1.00
C5     C     0.19477   0.07023   0.04043   0.00000  Uiso   1.00
C6     C    -0.07368   0.95451   0.83207   0.00000  Uiso   1.00
C7     C     0.96475   0.80478   1.01805   0.00000  Uiso   1.00
O8     O     0.87475   0.95145   1.05576   0.00000  Uiso   1.00
O9     O     0.77868   0.89882  -0.13412   0.00000  Uiso   1.00
O10    O     1.09075   0.09836   0.17896   0.00000  Uiso   1.00
O11    O     1.04601   0.99381   0.09573   0.00000  Uiso   1.00
O12    O    -0.01327   0.14359   0.90951   0.00000  Uiso   1.00
O13    O     0.09136   0.20121   0.09951   0.00000  Uiso   1.00
O14    O     0.11246   0.05318  -0.05827   0.00000  Uiso   1.00
O15    O     0.21123   0.10031   1.13265   0.00000  Uiso   1.00
O16    O    -0.09625   0.90299   0.82836   0.00000  Uiso   1.00
O17    O    -0.05341   0.00747   0.91030   0.00000  Uiso   1.00
O18    O     1.00164   0.86075   0.10183   0.00000  Uiso   1.00
O19    O     0.90686   0.80134   0.91361   0.00000  Uiso   1.00
C20    C    -0.01309   0.74942   1.03969   0.00000  Uiso   1.00
C21    C    -0.04424   0.69129   0.94470   0.00000  Uiso   1.00
C22    C    -0.02367   0.63861   0.96468   0.00000  Uiso   1.00
C23    C     1.02610   0.64255   0.07937   0.00000  Uiso   1.00
C24    C     1.05864   0.70099   0.17445   0.00000  Uiso   1.00
C25    C     1.03955   0.75414   0.15530   0.00000  Uiso   1.00
C26    C     0.98712   0.52971   1.01062   0.00000  Uiso   1.00
H27    H     1.08858   0.31746   0.17022   0.00000  Uiso   1.00
H28    H     1.05269   0.41120   0.14357   0.00000  Uiso   1.00
H29    H    -0.11024   0.30409   0.76148   0.00000  Uiso   1.00
H30    H    -0.07620   0.20929   0.78802   0.00000  Uiso   1.00
H31    H     1.07887   0.48668   0.10680   0.00000  Uiso   1.00
O32    O     0.94616   0.41718   0.92792   0.00000  Uiso   1.00
O33    O     1.05048   0.59154   0.10528   0.00000  Uiso   1.00
C34    C     1.00959   0.25651  -0.01857   0.00000  Uiso   1.00
C35    C     1.04615   0.31433   0.08108   0.00000  Uiso   1.00
C36    C     1.02611   0.36813   0.06565   0.00000  Uiso   1.00
C37    C     0.97082   0.36536   0.95022   0.00000  Uiso   1.00
C38    C    -0.06627   0.30735   0.85110   0.00000  Uiso   1.00
C39    C    -0.04721   0.25335   0.86618   0.00000  Uiso   1.00
C40    C     1.01001   0.47893   0.02352   0.00000  Uiso   1.00
H41    H    -0.04511   0.59540   0.89140   0.00000  Uiso   1.00
H42    H     1.09887   0.70520   0.26382   0.00000  Uiso   1.00
H43    H    -0.08308   0.68698   0.85567   0.00000  Uiso   1.00
H44    H    -0.08159   0.52196   0.92706   0.00000  Uiso   1.00
H45    H     1.06555   0.79873   0.23074   0.00000  Uiso   1.00
C46    C     0.26327   1.05505   1.04637   0.00000  Uiso   1.00
C47    C     0.24040   1.02488   0.93943   0.00000  Uiso   1.00
C48    C     0.30530   1.00974   0.94533   0.00000  Uiso   1.00
C49    C     0.39413   0.02451   0.05824   0.00000  Uiso   1.00
C50    C     0.41581   0.05318   0.16399   0.00000  Uiso   1.00
C51    C     0.35151   0.06903   0.15868   0.00000  Uiso   1.00
C52    C     0.46092   1.01071  -0.01128   0.00000  Uiso   1.00
H53    H     0.81079  -0.00561   0.13831   0.00000  Uiso   1.00
H54    H     0.69577   0.02297   0.12212   0.00000  Uiso   1.00
H55    H     0.50012   0.93328   0.73096   0.00000  Uiso   1.00
H56    H     0.61679   0.90611   0.74762   0.00000  Uiso   1.00
H57    H     0.55999  -0.03135   0.04676   0.00000  Uiso   1.00
O58    O     0.51973   0.99424   0.91003   0.00000  Uiso   1.00
O59    O     0.46040   0.00710   0.06859   0.00000  Uiso   1.00
C60    C     0.72226  -0.05240  -0.05586   0.00000  Uiso   1.00
C61    C     0.74312  -0.01951   0.04894   0.00000  Uiso   1.00
C62    C     0.67696  -0.00399   0.03949   0.00000  Uiso   1.00
C63    C     0.58784   0.97778  -0.07585   0.00000  Uiso   1.00
C64    C     0.56770   0.94614   0.81992   0.00000  Uiso   1.00
C65    C     0.63397   0.93058   0.82942   0.00000  Uiso   1.00
C66    C     0.51773  -0.00995  -0.01170   0.00000  Uiso   1.00
H67    H     0.28493   0.98478   0.86110   0.00000  Uiso   1.00
H68    H     0.48320   0.06339   0.25109   0.00000  Uiso   1.00
H69    H     0.17228   1.01254   0.85123   0.00000  Uiso   1.00
H70    H     0.41872   1.03225   0.93059   0.00000  Uiso   1.00
H71    H     0.36986   0.09095   0.24165   0.00000  Uiso   1.00
C72    C     1.05485   1.04923   0.24993   0.00000  Uiso   1.00
C73    C     1.07943   1.00786   0.30169   0.00000  Uiso   1.00
C74    C     1.06611   1.00909   0.37137   0.00000  Uiso   1.00
C75    C     1.02610   0.05107   0.38823   0.00000  Uiso   1.00
C76    C     0.00327   0.09303   0.33808   0.00000  Uiso   1.00
C77    C     0.01705   0.09205   0.26898   0.00000  Uiso   1.00
C78    C     0.99059  -0.00137   0.45717   0.00000  Uiso   1.00
H79    H    -0.11978   0.02651   0.71651   0.00000  Uiso   1.00
H80    H    -0.10410   0.02287   0.58647   0.00000  Uiso   1.00
H81    H     1.01105   0.87452   0.64347   0.00000  Uiso   1.00
H82    H     0.99235   0.87667   0.77074   0.00000  Uiso   1.00
H83    H     1.00749   0.04745   0.60059   0.00000  Uiso   1.00
O84    O     0.96640   0.94412   0.53215   0.00000  Uiso   1.00
O85    O     1.01317   0.05558   0.45985   0.00000  Uiso   1.00
C86    C     0.93603  -0.04762   0.75419   0.00000  Uiso   1.00
C87    C    -0.09036  -0.00636   0.70194   0.00000  Uiso   1.00
C88    C    -0.08092  -0.00832   0.62811   0.00000  Uiso   1.00
C89    C     0.95724  -0.05073   0.60780   0.00000  Uiso   1.00
C90    C     0.98160   0.90730   0.65810   0.00000  Uiso   1.00
C91    C     0.97109   0.90866   0.73062   0.00000  Uiso   1.00
C92    C     0.98904   0.00105   0.53477   0.00000  Uiso   1.00
H93    H     1.08869   0.97818   0.41369   0.00000  Uiso   1.00
H94    H    -0.02661   0.12598   0.35128   0.00000  Uiso   1.00
H95    H     1.11173   0.97619   0.29165   0.00000  Uiso   1.00
H96    H     0.97270   0.95230   0.39178   0.00000  Uiso   1.00
H97    H    -0.00242   0.12438   0.22974   0.00000  Uiso   1.00
loop_
_geom_bond_atom_site_label_1
_geom_bond_atom_site_label_2
_geom_bond_distance
_geom_bond_site_symmetry_2
_ccdc_geom_bond_type
Y0     O13     2.256   .     S
Y0     O14     2.253   .     S
Y0     O10     2.261   1_455 S
Y0     O12     2.257   1_554 S
Y0     O15     2.265   1_554 S
Y0     O17     2.257   1_554 S
Y1     O8      2.253   .     S
Y1     O19     2.260   .     S
Y1     O9      2.265   1_556 S
Y1     O11     2.259   1_556 S
Y1     O16     2.259   1_655 S
Y1     O18     2.255   1_556 S
C2     O8      1.257   .     A
C2     O9      1.263   1_556 A
C2     C60     1.474   1_566 S
C3     O10     1.274   .     A
C3     O11     1.271   1_545 A
C3     C72     1.470   1_545 S
C4     O13     1.261   .     A
C4     O12     1.263   1_554 A
C4     C34     1.475   1_455 S
C5     O14     1.260   .     A
C5     O15     1.263   1_554 A
C5     C46     1.474   1_544 S
C6     O16     1.274   .     A
C6     O17     1.271   1_565 A
C6     C86     1.470   1_465 S
C7     O19     1.261   .     A
C7     O18     1.259   1_556 A
C7     C20     1.474   1_655 S
O9     Y1      2.265   1_554 S
O9     C2      1.263   1_554 A
O10    Y0      2.261   1_655 S
O11    Y1      2.259   1_554 S
O11    C3      1.271   1_565 A
O12    Y0      2.257   1_556 S
O12    C4      1.263   1_556 A
O15    Y0      2.265   1_556 S
O15    C5      1.263   1_556 A
O16    Y1      2.259   1_455 S
O17    Y0      2.257   1_556 S
O17    C6      1.271   1_545 A
O18    Y1      2.255   1_554 S
O18    C7      1.259   1_554 A
C20    C21     1.404   .     A
C20    C25     1.404   1_456 A
C20    C7      1.474   1_455 S
C21    C22     1.398   .     A
C21    H43     1.082   .     S
C22    H41     1.080   .     S
C22    C23     1.410   1_456 A
C23    C24     1.399   .     A
C23    O33     1.406   .     S
C23    C22     1.410   1_654 A
C24    C25     1.399   .     A
C24    H42     1.082   .     S
C25    H45     1.085   .     S
C25    C20     1.404   1_654 A
C26    O33     1.404   1_556 S
C26    C40     1.332   1_556 D
C26    H44     1.090   1_655 S
H27    C35     1.082   .     S
H28    C36     1.083   .     S
H29    C38     1.084   .     S
H30    C39     1.082   .     S
H31    C40     1.090   .     S
O32    C37     1.406   .     S
O32    C40     1.407   1_556 S
O33    C26     1.404   1_554 S
C34    C35     1.404   .     A
C34    C39     1.403   1_654 A
C34    C4      1.475   1_655 S
C35    C36     1.398   .     A
C36    C37     1.413   1_554 A
C37    C36     1.413   1_556 A
C37    C38     1.399   1_655 A
C38    C39     1.397   .     A
C38    C37     1.399   1_455 A
C39    C34     1.403   1_456 A
C40    C26     1.332   1_554 D
C40    O32     1.407   1_554 S
H44    C26     1.090   1_455 S
C46    C47     1.406   .     A
C46    C51     1.403   1_566 A
C46    C5      1.474   1_566 S
C47    C48     1.399   .     A
C47    H69     1.085   .     S
C48    H67     1.083   .     S
C48    C49     1.408   1_566 A
C49    C50     1.400   .     A
C49    O59     1.405   .     S
C49    C48     1.408   1_544 A
C50    C51     1.397   .     A
C50    H68     1.083   .     S
C51    H71     1.082   .     S
C51    C46     1.403   1_544 A
C52    O59     1.404   1_565 S
C52    C66     1.333   1_565 D
C52    H70     1.087   1_554 S
H53    C61     1.081   .     S
H54    C62     1.082   .     S
H55    C64     1.082   .     S
H56    C65     1.082   .     S
H57    C66     1.087   .     S
O58    C63     1.405   1_556 S
O58    C66     1.404   1_566 S
O59    C52     1.404   1_545 S
C60    C61     1.404   .     A
C60    C65     1.404   1_544 A
C60    C2      1.474   1_544 S
C61    C62     1.396   .     A
C62    C63     1.409   1_545 A
C63    O58     1.405   1_554 S
C63    C62     1.409   1_565 A
C63    C64     1.401   1_554 A
C64    C65     1.398   .     A
C64    C63     1.401   1_556 A
C65    C60     1.404   1_566 A
C66    C52     1.333   1_545 D
C66    O58     1.404   1_544 S
H70    C52     1.087   1_556 S
C72    C73     1.401   .     A
C72    C77     1.402   1_665 A
C72    C3      1.470   1_565 S
C73    C74     1.398   .     A
C73    H95     1.082   .     S
C74    H93     1.082   .     S
C74    C75     1.411   1_565 A
C75    O85     1.406   .     S
C75    C74     1.411   1_545 A
C75    C76     1.400   1_655 A
C76    C77     1.398   .     A
C76    H94     1.082   .     S
C76    C75     1.400   1_455 A
C77    H97     1.083   .     S
C77    C72     1.402   1_445 A
C78    O85     1.404   .     S
C78    C92     1.333   .     D
C78    H96     1.087   1_545 S
H79    C87     1.083   .     S
H80    C88     1.081   .     S
H81    C90     1.082   .     S
H82    C91     1.083   .     S
H83    C92     1.087   .     S
O84    C89     1.406   1_565 S
O84    C92     1.404   1_565 S
C86    C87     1.403   1_655 A
C86    C91     1.403   1_545 A
C86    C6      1.470   1_645 S
C87    C88     1.398   .     A
C87    C86     1.403   1_455 A
C88    C89     1.411   1_455 A
C89    O84     1.406   1_545 S
C89    C88     1.411   1_655 A
C89    C90     1.400   1_545 A
C90    C91     1.398   .     A
C90    C89     1.400   1_565 A
C91    C86     1.403   1_565 A
C92    O84     1.404   1_545 S
H96    C78     1.087   1_565 S
