data_pcu+N123+E15
_audit_creation_date              2023-11-17
_audit_creation_method            'Materials Studio'
_symmetry_space_group_name_H-M    'P1'
_symmetry_Int_Tables_number       1
_symmetry_cell_setting            triclinic
loop_
_symmetry_equiv_pos_as_xyz
  x,y,z
_cell_length_a                    13.5336
_cell_length_b                    10.4545
_cell_length_c                    9.3482
_cell_angle_alpha                 111.4521
_cell_angle_beta                  100.8481
_cell_angle_gamma                 88.0010
loop_
_atom_site_label
_atom_site_type_symbol
_atom_site_fract_x
_atom_site_fract_y
_atom_site_fract_z
_atom_site_U_iso_or_equiv
_atom_site_adp_type
_atom_site_occupancy
Ce0    Ce    0.10320   0.98247   0.97995   0.00000  Uiso   1.00
Ce1    Ce    0.86165  -0.01535  -0.03105   0.00000  Uiso   1.00
C2     C     0.91664   1.03979   0.73891   0.00000  Uiso   1.00
C3     C     0.29666   0.93190   0.94436   0.00000  Uiso   1.00
C4     C     0.99738   0.73959   0.03896   0.00000  Uiso   1.00
C5     C     0.04134   0.04983   0.27022   0.00000  Uiso   1.00
C6     C     0.66818  -0.07294  -0.05796   0.00000  Uiso   1.00
C7     C     0.02622   0.26416   1.05173   0.00000  Uiso   1.00
O8     O     0.84777   0.09854   0.80336   0.00000  Uiso   1.00
O9     O    -0.04160   0.93453   0.78923   0.00000  Uiso   1.00
O10    O     0.22171   0.89317   0.83253   0.00000  Uiso   1.00
O11    O     0.27432   0.99993   0.07750   0.00000  Uiso   1.00
O12    O     0.07115   0.76783  -0.01564   0.00000  Uiso   1.00
O13    O     0.92030   0.81502   0.06259   0.00000  Uiso   1.00
O14    O     0.11767   0.99254   0.24077   0.00000  Uiso   1.00
O15    O     0.99660   0.09165   0.15239   0.00000  Uiso   1.00
O16    O     0.71629   0.02264   0.06507   0.00000  Uiso   1.00
O17    O     0.71958  -0.13817   0.83689   0.00000  Uiso   1.00
O18    O     0.96637   0.19727   1.09978   0.00000  Uiso   1.00
O19    O     0.09952   0.20280   0.98844   0.00000  Uiso   1.00
N20    N     0.95337   0.48383   0.19012   0.00000  Uiso   1.00
N21    N     0.94507   0.60824   0.18565   0.00000  Uiso   1.00
C22    C     1.00024   0.61907   0.08459   0.00000  Uiso   1.00
C23    C     0.04723   0.49592   1.02278   0.00000  Uiso   1.00
C24    C     1.01407   0.41247   0.09212   0.00000  Uiso   1.00
H25    H     0.09171   0.46769   0.93169   0.00000  Uiso   1.00
H26    H     0.91480   0.44729   0.25517   0.00000  Uiso   1.00
H27    H     0.89962   0.68287   0.24750   0.00000  Uiso   1.00
N28    N     0.51323   0.79242   0.78557   0.00000  Uiso   1.00
N29    N     0.41591   0.79446   0.78558   0.00000  Uiso   1.00
C30    C     0.39879   0.89564   0.91631   0.00000  Uiso   1.00
C31    C     0.48977  -0.03855   0.00495   0.00000  Uiso   1.00
C32    C     0.56039   0.89281   0.91589   0.00000  Uiso   1.00
H33    H     0.50200   0.05044   0.11277   0.00000  Uiso   1.00
H34    H     0.54611   0.72562   0.69489   0.00000  Uiso   1.00
H35    H     0.36203   0.72907   0.69539   0.00000  Uiso   1.00
N36    N     0.90893   0.18738   0.58414   0.00000  Uiso   1.00
N37    N     0.94212   0.19028   0.46174   0.00000  Uiso   1.00
C38    C     1.00343   0.08504   0.41602   0.00000  Uiso   1.00
C39    C     0.01019   1.01092   0.51417   0.00000  Uiso   1.00
C40    C     0.94751   0.07923   0.61812   0.00000  Uiso   1.00
H41    H     0.04873   0.91648   0.50440   0.00000  Uiso   1.00
H42    H     0.85801   0.25618   0.64004   0.00000  Uiso   1.00
H43    H     0.92062   0.26130   0.40799   0.00000  Uiso   1.00
loop_
_geom_bond_atom_site_label_1
_geom_bond_atom_site_label_2
_geom_bond_distance
_geom_bond_site_symmetry_2
_ccdc_geom_bond_type
Ce0    O9      2.317   .     S
Ce0    O10     2.265   .     S
Ce0    O11     2.311   1_556 S
Ce0    O12     2.317   1_556 S
Ce0    O14     2.372   1_556 S
Ce0    O15     2.323   1_466 S
Ce0    O19     2.275   1_565 S
Ce1    O15     2.256   .     S
Ce1    O16     2.277   .     S
Ce1    O8      2.252   1_554 S
Ce1    O9      2.224   1_644 S
Ce1    O13     2.306   1_545 S
Ce1    O17     2.234   1_554 S
Ce1    O18     2.454   1_554 S
C2     O8      1.229   1_565 D
C2     O9      1.410   1_655 S
C2     C40     1.466   1_565 S
C3     O10     1.267   .     A
C3     C30     1.466   .     S
C3     O11     1.275   1_556 A
C4     O13     1.289   .     A
C4     C22     1.468   .     S
C4     O12     1.291   1_655 A
C5     O14     1.202   1_545 D
C5     O15     1.362   1_455 S
C5     C38     1.463   1_455 S
C6     O16     1.292   .     A
C6     O17     1.284   1_554 A
C6     C32     1.468   1_544 S
C7     O19     1.282   .     A
C7     O18     1.324   1_455 A
C7     C24     1.467   1_456 S
O8     Ce1     2.252   1_556 S
O8     C2      1.229   1_545 D
O9     Ce1     2.224   1_466 S
O9     C2      1.410   1_455 S
O11    Ce0     2.311   1_554 S
O11    C3      1.275   1_554 A
O12    Ce0     2.317   1_554 S
O12    C4      1.291   1_455 A
O13    Ce1     2.306   1_565 S
O14    Ce0     2.372   1_554 S
O14    C5      1.202   1_565 D
O15    Ce0     2.323   1_644 S
O15    C5      1.362   1_655 S
O17    Ce1     2.234   1_556 S
O17    C6      1.284   1_556 A
O18    Ce1     2.454   1_556 S
O18    C7      1.324   1_655 A
O19    Ce0     2.275   1_545 S
N20    N21     1.317   .     A
N20    C24     1.346   .     A
N20    H26     1.045   .     S
N21    C22     1.346   .     A
N21    H27     1.045   .     S
C22    C23     1.390   1_654 A
C23    H25     1.082   .     S
C23    C22     1.390   1_456 A
C23    C24     1.390   1_456 A
C24    C23     1.390   1_654 A
C24    C7      1.467   1_654 S
N28    N29     1.317   .     A
N28    C32     1.346   .     A
N28    H34     1.045   .     S
N29    C30     1.345   .     A
N29    H35     1.045   .     S
C30    C31     1.391   1_566 A
C31    H33     1.082   .     S
C31    C30     1.391   1_544 A
C31    C32     1.391   1_544 A
C32    C31     1.391   1_566 A
C32    C6      1.468   1_566 S
N36    N37     1.316   .     A
N36    C40     1.346   .     A
N36    H42     1.045   .     S
N37    C38     1.344   .     A
N37    H43     1.045   .     S
C38    C39     1.391   1_645 A
C38    C5      1.463   1_655 S
C39    H41     1.082   .     S
C39    C38     1.391   1_465 A
C39    C40     1.391   1_465 A
C40    C39     1.391   1_645 A
C40    C2      1.466   1_545 S
