data_pcu+N139+E1
_audit_creation_date              2023-11-17
_audit_creation_method            'Materials Studio'
_symmetry_space_group_name_H-M    'P1'
_symmetry_Int_Tables_number       1
_symmetry_cell_setting            triclinic
loop_
_symmetry_equiv_pos_as_xyz
  x,y,z
_cell_length_a                    21.2516
_cell_length_b                    17.9233
_cell_length_c                    23.6556
_cell_angle_alpha                 99.4187
_cell_angle_beta                  94.2972
_cell_angle_gamma                 20.7937
loop_
_atom_site_label
_atom_site_type_symbol
_atom_site_fract_x
_atom_site_fract_y
_atom_site_fract_z
_atom_site_U_iso_or_equiv
_atom_site_adp_type
_atom_site_occupancy
C0     C     0.06751  -0.03581   0.19909   0.00000  Uiso   1.00
Sm1    Sm    0.88814   0.06269   0.91263   0.00000  Uiso   1.00
Sm2    Sm    0.09228   0.95491   0.08939   0.00000  Uiso   1.00
C3     C     0.88131   0.22837  -0.00959   0.00000  Uiso   1.00
C4     C     0.24003   0.91870   0.06589   0.00000  Uiso   1.00
O5     O     0.05000   0.90676   0.82710   0.00000  Uiso   1.00
O6     O     0.76291   0.20547   0.83625   0.00000  Uiso   1.00
O7     O     0.13904   0.77674   0.05916   0.00000  Uiso   1.00
O8     O     1.08200   0.84938   0.97401   0.00000  Uiso   1.00
O9     O     0.68138   0.22800  -0.03286   0.00000  Uiso   1.00
O10    O     0.87882   0.94836   0.89345   0.00000  Uiso   1.00
O11    O     0.93050   0.11098   0.17499   0.00000  Uiso   1.00
O12    O     0.21744   0.81254   0.16582   0.00000  Uiso   1.00
O13    O     0.84027   0.24205   0.94306   0.00000  Uiso   1.00
O14    O    -0.10140   0.16786   0.02797   0.00000  Uiso   1.00
O15    O     0.29947   0.78867   1.03452   0.00000  Uiso   1.00
O16    O     0.10289   0.06777   0.10824   0.00000  Uiso   1.00
C17    C     0.91289   1.05386   0.80303   0.00000  Uiso   1.00
C18    C     0.09820   0.79019   1.01177   0.00000  Uiso   1.00
C19    C     0.74156   0.09729   0.93568   0.00000  Uiso   1.00
C20    C     1.02480   0.63251   0.00155   0.00000  Uiso   1.00
C21    C     1.12474   0.55067   0.95257   0.00000  Uiso   1.00
C22    C     1.14432   0.60711   0.95462   0.00000  Uiso   1.00
C23    C     1.06214   0.74883   0.00530   0.00000  Uiso   1.00
C24    C     0.96017   0.83341   0.05369   0.00000  Uiso   1.00
C25    C     0.94015   0.77795   0.05169   0.00000  Uiso   1.00
C26    C     1.00904   0.56677   0.00110   0.00000  Uiso   1.00
C27    C     0.99473   0.55239   0.05319   0.00000  Uiso   1.00
C28    C     0.97420   0.49767   0.05338   0.00000  Uiso   1.00
C29    C     0.97161   0.45051   0.00125   0.00000  Uiso   1.00
C30    C     0.98659   0.46411   0.94913   0.00000  Uiso   1.00
C31    C     1.00660   0.51943   0.94897   0.00000  Uiso   1.00
C32    C     0.95582   0.38476   0.00075   0.00000  Uiso   1.00
C33    C     1.04008   0.23976   0.95055   0.00000  Uiso   1.00
C34    C     1.01963   0.18478   0.94848   0.00000  Uiso   1.00
C35    C     0.91761   0.26942  -0.00314   0.00000  Uiso   1.00
C36    C     0.83616   0.41031   0.04762   0.00000  Uiso   1.00
C37    C     0.85590   0.46657   0.04972   0.00000  Uiso   1.00
H38    H     1.19277   0.43771   0.91323   0.00000  Uiso   1.00
H39    H     1.22783   0.53527   0.91742   0.00000  Uiso   1.00
H40    H    -0.10375   0.94247   0.09336   0.00000  Uiso   1.00
H41    H     0.85641   0.85146   0.08948   0.00000  Uiso   1.00
H42    H     1.00221   0.58004   0.09398   0.00000  Uiso   1.00
H43    H     0.96493   0.48726   0.09434   0.00000  Uiso   1.00
H44    H     0.97943   0.43611   0.90830   0.00000  Uiso   1.00
H45    H     1.01562   0.53014   0.90802   0.00000  Uiso   1.00
H46    H     1.12408   0.16592   0.91280   0.00000  Uiso   1.00
H47    H     1.08363   0.07563   0.90877   0.00000  Uiso   1.00
H48    H    -0.24740   0.48221   0.08485   0.00000  Uiso   1.00
H49    H     0.78831   0.57903   0.08913   0.00000  Uiso   1.00
C50    C     0.42323  -0.06779   0.02847   0.00000  Uiso   1.00
C51    C     0.32555   0.03225   0.08481   0.00000  Uiso   1.00
C52    C     0.27223   1.02038   0.09724   0.00000  Uiso   1.00
C53    C     0.31664  -0.09346   0.05390   0.00000  Uiso   1.00
C54    C     0.42368  -0.20514   0.99865   0.00000  Uiso   1.00
C55    C     0.47564  -0.19132   0.98587   0.00000  Uiso   1.00
C56    C     0.46205  -0.03403   0.01383   0.00000  Uiso   1.00
C57    C     0.45799  -0.01425   0.95776   0.00000  Uiso   1.00
C58    C     0.48679   0.02658   0.94464   0.00000  Uiso   1.00
C59    C     0.51991   0.04940  -0.01270   0.00000  Uiso   1.00
C60    C     0.52352   0.03016   0.04341   0.00000  Uiso   1.00
C61    C     0.49512  -0.01113   0.05649   0.00000  Uiso   1.00
C62    C     0.55866   0.08324  -0.02731   0.00000  Uiso   1.00
C63    C     0.50505   0.20807   0.01521   0.00000  Uiso   1.00
C64    C     0.55737   1.22152   0.00258   0.00000  Uiso   1.00
C65    C     0.66506   0.10922  -0.05255   0.00000  Uiso   1.00
C66    C     0.71138  -0.00676   0.90423   0.00000  Uiso   1.00
C67    C     0.65749  -0.01803   0.91651   0.00000  Uiso   1.00
H68    H     0.28128   0.13012   0.11864   0.00000  Uiso   1.00
H69    H     0.19041   1.10711   0.14035   0.00000  Uiso   1.00
H70    H     0.46074  -0.29543   0.96465   0.00000  Uiso   1.00
H71    H     0.55600  -0.27646   0.94260   0.00000  Uiso   1.00
H72    H     0.42738  -0.02405   0.92431   0.00000  Uiso   1.00
H73    H     0.47973   0.04413   0.90124   0.00000  Uiso   1.00
H74    H     0.55364   0.04056   0.07690   0.00000  Uiso   1.00
H75    H     0.50194  -0.02833   0.09993   0.00000  Uiso   1.00
H76    H     0.42469   0.29314   0.05844   0.00000  Uiso   1.00
H77    H     0.51958   1.31261   0.03657   0.00000  Uiso   1.00
H78    H     0.79483  -0.09530   0.86134   0.00000  Uiso   1.00
H79    H     0.70276  -0.11704   0.88279   0.00000  Uiso   1.00
C80    C     1.02389  -0.01358   0.37895   0.00000  Uiso   1.00
C81    C     0.17561   0.85217   0.34859   0.00000  Uiso   1.00
C82    C     0.19040   0.84365   0.28994   0.00000  Uiso   1.00
C83    C     1.05341  -0.02992   0.26062   0.00000  Uiso   1.00
C84    C     0.90250   0.10303   0.29065   0.00000  Uiso   1.00
C85    C     0.88829   0.11033   0.34916   0.00000  Uiso   1.00
C86    C     1.00638  -0.00141   0.44156   0.00000  Uiso   1.00
C87    C     0.83757   0.19933   0.48173   0.00000  Uiso   1.00
C88    C     0.82121   0.21104   0.54072   0.00000  Uiso   1.00
C89    C     0.97332   0.02208   0.56090   0.00000  Uiso   1.00
C90    C     1.14215   0.82134   0.52072   0.00000  Uiso   1.00
C91    C     1.15853   0.80960   0.46172   0.00000  Uiso   1.00
C92    C     0.95575   0.03401   0.62350   0.00000  Uiso   1.00
C93    C     0.09255   0.90764   0.65313   0.00000  Uiso   1.00
C94    C     0.07859   0.91415   0.71152   0.00000  Uiso   1.00
C95    C     0.92671   0.04878   0.74162   0.00000  Uiso   1.00
C96    C     0.78850   0.17772   0.71248   0.00000  Uiso   1.00
C97    C     0.80307   0.16994   0.65394   0.00000  Uiso   1.00
H98    H     0.28130   0.75677   0.37052   0.00000  Uiso   1.00
H99    H     0.30767   0.74078   0.26782   0.00000  Uiso   1.00
H100   H     0.79549   0.20113   0.26886   0.00000  Uiso   1.00
H101   H     0.77109   0.21287   0.37107   0.00000  Uiso   1.00
H102   H     0.71840   0.34841   0.46777   0.00000  Uiso   1.00
H103   H     0.68992   0.36851   0.57073   0.00000  Uiso   1.00
H104   H     0.26132   0.67211   0.53461   0.00000  Uiso   1.00
H105   H     0.28976   0.65201   0.43165   0.00000  Uiso   1.00
H106   H     0.21039   0.80401   0.63122   0.00000  Uiso   1.00
H107   H     0.18622   0.81469   0.73322   0.00000  Uiso   1.00
H108   H     0.67027   0.28226   0.73468   0.00000  Uiso   1.00
H109   H     0.69649   0.26711   0.63216   0.00000  Uiso   1.00
loop_
_geom_bond_atom_site_label_1
_geom_bond_atom_site_label_2
_geom_bond_distance
_geom_bond_site_symmetry_2
_ccdc_geom_bond_type
C0     O11     1.282   1_455 A
C0     O12     1.282   1_545 A
C0     C83     1.475   1_455 S
Sm1    O6      2.226   .     S
Sm1    O13     2.264   .     S
Sm1    O5      2.226   1_645 S
Sm1    O8      2.273   1_545 S
Sm1    O9      2.237   1_556 S
Sm1    O10     2.210   1_545 S
Sm2    O7      2.263   .     S
Sm2    O12     2.226   .     S
Sm2    O11     2.226   1_465 S
Sm2    O14     2.273   1_565 S
Sm2    O15     2.238   1_554 S
Sm2    O16     2.210   1_565 S
C3     C35     1.472   .     S
C3     O13     1.272   1_554 A
C3     O14     1.274   1_655 A
C4     O15     1.284   1_554 A
C4     O16     1.280   1_565 A
C4     C53     1.471   1_565 S
O5     Sm1     2.226   1_465 S
O5     C17     1.282   1_455 A
O6     C17     1.282   1_545 A
O7     C18     1.273   1_554 A
O8     Sm1     2.273   1_565 S
O8     C18     1.274   1_655 A
O9     Sm1     2.237   1_554 S
O9     C19     1.284   1_554 A
O10    Sm1     2.210   1_565 S
O10    C19     1.280   1_565 A
O11    C0      1.282   1_655 A
O11    Sm2     2.226   1_645 S
O12    C0      1.282   1_565 A
O13    C3      1.272   1_556 A
O14    Sm2     2.273   1_545 S
O14    C3      1.274   1_455 A
O15    Sm2     2.238   1_556 S
O15    C4      1.284   1_556 A
O16    Sm2     2.210   1_545 S
O16    C4      1.280   1_545 A
C17    O5      1.282   1_655 A
C17    O6      1.282   1_565 A
C17    C95     1.475   1_565 S
C18    O7      1.273   1_556 A
C18    O8      1.274   1_455 A
C18    C23     1.472   1_456 S
C19    O9      1.284   1_556 A
C19    O10     1.280   1_545 A
C19    C65     1.471   1_556 S
C20    C25     1.406   .     A
C20    C26     1.494   .     S
C20    C21     1.412   1_554 A
C21    C22     1.402   .     A
C21    H38     1.081   .     S
C21    C20     1.412   1_556 A
C22    H39     1.083   .     S
C22    C23     1.401   1_556 A
C23    C24     1.402   .     A
C23    C22     1.401   1_554 A
C23    C18     1.472   1_654 S
C24    C25     1.394   .     A
C24    H40     1.083   1_655 S
C25    H41     1.082   .     S
C26    C27     1.409   .     A
C26    C31     1.405   1_554 A
C27    C28     1.398   .     A
C27    H42     1.082   .     S
C28    C29     1.405   .     A
C28    H43     1.081   .     S
C29    C32     1.495   .     S
C29    C30     1.408   1_554 A
C30    C31     1.398   .     A
C30    H44     1.082   .     S
C30    C29     1.408   1_556 A
C31    H45     1.081   .     S
C31    C26     1.405   1_556 A
C32    C37     1.411   .     A
C32    C33     1.407   1_554 A
C33    C34     1.394   .     A
C33    H46     1.082   .     S
C33    C32     1.407   1_556 A
C34    H47     1.084   .     S
C34    C35     1.402   1_556 A
C35    C36     1.400   .     A
C35    C34     1.402   1_554 A
C36    C37     1.403   .     A
C36    H48     1.083   1_655 S
C37    H49     1.080   .     S
H40    C24     1.083   1_455 S
H48    C36     1.083   1_455 S
C50    C51     1.405   .     A
C50    C56     1.487   .     S
C50    C55     1.409   1_554 A
C51    H68     1.082   .     S
C51    C52     1.392   1_545 A
C52    H69     1.083   .     S
C52    C51     1.392   1_565 A
C52    C53     1.402   1_565 A
C53    C52     1.402   1_545 A
C53    C54     1.402   1_554 A
C53    C4      1.471   1_545 S
C54    C55     1.399   .     A
C54    H70     1.083   .     S
C54    C53     1.402   1_556 A
C55    H71     1.082   .     S
C55    C50     1.409   1_556 A
C56    C61     1.407   .     A
C56    C57     1.404   1_554 A
C57    C58     1.395   .     A
C57    H72     1.082   .     S
C57    C56     1.404   1_556 A
C58    H73     1.082   .     S
C58    C59     1.406   1_556 A
C59    C60     1.404   .     A
C59    C62     1.487   .     S
C59    C58     1.406   1_554 A
C60    C61     1.395   .     A
C60    H74     1.082   .     S
C61    H75     1.082   .     S
C62    C63     1.409   .     A
C62    C67     1.405   1_554 A
C63    H76     1.082   .     S
C63    C64     1.399   1_545 A
C64    H77     1.083   .     S
C64    C63     1.399   1_565 A
C64    C65     1.402   1_565 A
C65    C64     1.402   1_545 A
C65    C66     1.402   1_554 A
C65    C19     1.471   1_554 S
C66    C67     1.392   .     A
C66    H78     1.083   .     S
C66    C65     1.402   1_556 A
C67    H79     1.082   .     S
C67    C62     1.405   1_556 A
C80    C85     1.405   .     A
C80    C86     1.485   .     S
C80    C81     1.406   1_645 A
C81    C82     1.398   .     A
C81    H98     1.083   .     S
C81    C80     1.406   1_465 A
C82    H99     1.083   .     S
C82    C83     1.403   1_465 A
C83    C84     1.403   .     A
C83    C82     1.403   1_645 A
C83    C0      1.475   1_655 S
C84    C85     1.397   .     A
C84    H100    1.083   .     S
C85    H101    1.083   .     S
C86    C87     1.406   .     A
C86    C91     1.406   1_545 A
C87    C88     1.397   .     A
C87    H102    1.083   .     S
C88    C89     1.406   .     A
C88    H103    1.083   .     S
C89    C92     1.486   .     S
C89    C90     1.406   1_545 A
C90    C91     1.397   .     A
C90    C89     1.406   1_565 A
C90    H104    1.083   1_655 S
C91    C86     1.406   1_565 A
C91    H105    1.083   1_655 S
C92    C97     1.406   .     A
C92    C93     1.406   1_645 A
C93    C94     1.398   .     A
C93    H106    1.083   .     S
C93    C92     1.406   1_465 A
C94    H107    1.083   .     S
C94    C95     1.403   1_465 A
C95    C96     1.403   .     A
C95    C94     1.403   1_645 A
C95    C17     1.475   1_545 S
C96    C97     1.398   .     A
C96    H108    1.083   .     S
C97    H109    1.083   .     S
H104   C90     1.083   1_455 S
H105   C91     1.083   1_455 S
