data_pcu+N139+E28
_audit_creation_date              2023-11-17
_audit_creation_method            'Materials Studio'
_symmetry_space_group_name_H-M    'P1'
_symmetry_Int_Tables_number       1
_symmetry_cell_setting            triclinic
loop_
_symmetry_equiv_pos_as_xyz
  x,y,z
_cell_length_a                    21.6077
_cell_length_b                    17.5774
_cell_length_c                    23.4778
_cell_angle_alpha                 101.3047
_cell_angle_beta                  92.3307
_cell_angle_gamma                 20.2015
loop_
_atom_site_label
_atom_site_type_symbol
_atom_site_fract_x
_atom_site_fract_y
_atom_site_fract_z
_atom_site_U_iso_or_equiv
_atom_site_adp_type
_atom_site_occupancy
C0     C     0.04622  -0.00086   0.20064   0.00000  Uiso   1.00
Sm1    Sm    0.90558   0.03783   0.91431   0.00000  Uiso   1.00
Sm2    Sm    0.07607   0.97952   0.08756   0.00000  Uiso   1.00
C3     C     0.85551   0.26232  -0.00234   0.00000  Uiso   1.00
C4     C     0.20466   0.96490   0.06031   0.00000  Uiso   1.00
O5     O     0.07985   0.86030   0.81725   0.00000  Uiso   1.00
O6     O     0.77626   0.18438   0.84403   0.00000  Uiso   1.00
O7     O     0.15993   0.75309   0.05045   0.00000  Uiso   1.00
O8     O     1.10544   0.81746   0.96624   0.00000  Uiso   1.00
O9     O     0.69401   0.21363  -0.02006   0.00000  Uiso   1.00
O10    O     0.92959   0.88130   0.89091   0.00000  Uiso   1.00
O11    O     0.90146   0.15749   0.18467   0.00000  Uiso   1.00
O12    O     0.20544   0.83263   0.15779   0.00000  Uiso   1.00
O13    O     0.82215   0.26382   0.95128   0.00000  Uiso   1.00
O14    O    -0.12373   0.19997   0.03559   0.00000  Uiso   1.00
O15    O     0.28790   0.80345   1.02203   0.00000  Uiso   1.00
O16    O     0.05239   0.13566   0.11108   0.00000  Uiso   1.00
C17    C     0.93532   1.01811   0.80119   0.00000  Uiso   1.00
C18    C     0.12696   0.75414   1.00399   0.00000  Uiso   1.00
C19    C     0.77740   0.05199   0.94172   0.00000  Uiso   1.00
C20    C     1.05409   0.59528   0.00013   0.00000  Uiso   1.00
C21    C     1.17723   0.47730   0.94367   0.00000  Uiso   1.00
C22    C     1.19987   0.53049   0.94401   0.00000  Uiso   1.00
C23    C     1.09809   0.70414   0.00055   0.00000  Uiso   1.00
C24    C     0.98025   0.81597   0.05709   0.00000  Uiso   1.00
C25    C     0.95780   0.76313   0.05691   0.00000  Uiso   1.00
C26    C     1.02389   0.54669   0.00026   0.00000  Uiso   1.00
N27    N     0.90138   0.66589   0.05476   0.00000  Uiso   1.00
N28    N     0.87205   0.62501   0.05502   0.00000  Uiso   1.00
C29    C     0.96310   0.46412   0.00070   0.00000  Uiso   1.00
N30    N     1.08558   0.34494   0.94618   0.00000  Uiso   1.00
N31    N     1.11498   0.38576   0.94592   0.00000  Uiso   1.00
C32    C     0.93159   0.41715   0.00091   0.00000  Uiso   1.00
C33    C     1.02710   0.25007   0.94419   0.00000  Uiso   1.00
C34    C     1.00369   0.19840   0.94419   0.00000  Uiso   1.00
C35    C     0.88568   0.31065   0.00084   0.00000  Uiso   1.00
C36    C     0.78425   0.48410   0.05730   0.00000  Uiso   1.00
C37    C     0.80858   0.53520   0.05749   0.00000  Uiso   1.00
H38    H     1.25494   0.34539   0.89926   0.00000  Uiso   1.00
H39    H     1.29629   0.43675   0.90040   0.00000  Uiso   1.00
H40    H    -0.09525   0.94552   0.10160   0.00000  Uiso   1.00
H41    H     0.86342   0.85582   0.10134   0.00000  Uiso   1.00
H42    H     1.12187   0.15675   0.89970   0.00000  Uiso   1.00
H43    H     1.07974   0.06806   0.89972   0.00000  Uiso   1.00
H44    H    -0.31308   0.57918   0.10096   0.00000  Uiso   1.00
H45    H     0.73147   0.66653   0.10188   0.00000  Uiso   1.00
C46    C     0.38950  -0.02462   0.02428   0.00000  Uiso   1.00
C47    C     0.26128   0.11504   0.08606   0.00000  Uiso   1.00
C48    C     0.20436   1.10768   0.09753   0.00000  Uiso   1.00
C49    C     0.27445  -0.03969   0.04761   0.00000  Uiso   1.00
C50    C     0.40506  -0.18277   0.98601   0.00000  Uiso   1.00
C51    C     0.46226  -0.17545   0.97437   0.00000  Uiso   1.00
C52    C     0.44369  -0.00897   0.01217   0.00000  Uiso   1.00
N53    N     0.56236  -0.13657   0.95235   0.00000  Uiso   1.00
N54    N     0.60924  -0.12013   0.94161   0.00000  Uiso   1.00
C55    C     0.53967   0.02429  -0.00985   0.00000  Uiso   1.00
N56    N     0.42097   0.15193   0.04998   0.00000  Uiso   1.00
N57    N     0.37407   0.13551   0.06072   0.00000  Uiso   1.00
C58    C     0.59444   0.03924  -0.02195   0.00000  Uiso   1.00
C59    C     0.52072   0.19126   0.02783   0.00000  Uiso   1.00
C60    C     0.57696   1.19974   0.01610   0.00000  Uiso   1.00
C61    C     0.70801   0.05607  -0.04546   0.00000  Uiso   1.00
C62    C     0.78005  -0.09369   0.90479   0.00000  Uiso   1.00
C63    C     0.72317  -0.10109   0.91631   0.00000  Uiso   1.00
H64    H     0.20284   0.23255   0.12563   0.00000  Uiso   1.00
H65    H     0.10341   1.21985   0.14556   0.00000  Uiso   1.00
H66    H     0.45955  -0.29607   0.94664   0.00000  Uiso   1.00
H67    H     0.56156  -0.28572   0.92620   0.00000  Uiso   1.00
H68    H     0.42023   0.30299   0.07589   0.00000  Uiso   1.00
H69    H     0.52059   1.31532   0.05533   0.00000  Uiso   1.00
H70    H     0.88196  -0.20706   0.85685   0.00000  Uiso   1.00
H71    H     0.78262  -0.21984   0.87684   0.00000  Uiso   1.00
C72    C     1.01086   0.00809   0.38184   0.00000  Uiso   1.00
C73    C     0.17107   0.85767   0.34147   0.00000  Uiso   1.00
C74    C     0.18215   0.85533   0.28265   0.00000  Uiso   1.00
C75    C     1.03256   0.00480   0.26319   0.00000  Uiso   1.00
C76    C     0.87132   0.15725   0.30363   0.00000  Uiso   1.00
C77    C     0.86084   0.15829   0.36227   0.00000  Uiso   1.00
C78    C     1.00024   0.00852   0.44394   0.00000  Uiso   1.00
N79    N     0.85840   0.13114   0.47972   0.00000  Uiso   1.00
N80    N     0.84947   0.13061   0.53538   0.00000  Uiso   1.00
C81    C     0.98168   0.00786   0.55773   0.00000  Uiso   1.00
N82    N     1.12349   0.88529   0.52196   0.00000  Uiso   1.00
N83    N     1.13239   0.88588   0.46631   0.00000  Uiso   1.00
C84    C     0.97108   0.00829   0.61984   0.00000  Uiso   1.00
C85    C     0.12082   0.85863   0.63947   0.00000  Uiso   1.00
C86    C     0.11069   0.85914   0.69804   0.00000  Uiso   1.00
C87    C     0.94953   0.01147   0.73849   0.00000  Uiso   1.00
C88    C     0.79967   0.16138   0.71911   0.00000  Uiso   1.00
C89    C     0.81087   0.15874   0.66023   0.00000  Uiso   1.00
H90    H     0.28835   0.74119   0.35521   0.00000  Uiso   1.00
H91    H     0.30702   0.73805   0.25262   0.00000  Uiso   1.00
H92    H     0.75359   0.27496   0.28981   0.00000  Uiso   1.00
H93    H     0.73400   0.27879   0.39250   0.00000  Uiso   1.00
H94    H     0.24690   0.73945   0.60942   0.00000  Uiso   1.00
H95    H     0.22854   0.74130   0.71181   0.00000  Uiso   1.00
H96    H     0.67455   0.27913   0.74922   0.00000  Uiso   1.00
H97    H     0.69372   0.27498   0.64648   0.00000  Uiso   1.00
loop_
_geom_bond_atom_site_label_1
_geom_bond_atom_site_label_2
_geom_bond_distance
_geom_bond_site_symmetry_2
_ccdc_geom_bond_type
C0     O11     1.282   1_455 A
C0     O12     1.281   1_545 A
C0     C75     1.475   1_455 S
Sm1    O6      2.224   .     S
Sm1    O13     2.262   .     S
Sm1    O5      2.228   1_645 S
Sm1    O8      2.273   1_545 S
Sm1    O9      2.239   1_556 S
Sm1    O10     2.212   1_545 S
Sm2    O7      2.262   .     S
Sm2    O12     2.224   .     S
Sm2    O11     2.229   1_465 S
Sm2    O14     2.273   1_565 S
Sm2    O15     2.239   1_554 S
Sm2    O16     2.212   1_565 S
C3     C35     1.471   .     S
C3     O13     1.272   1_554 A
C3     O14     1.274   1_655 A
C4     O15     1.283   1_554 A
C4     O16     1.279   1_565 A
C4     C49     1.473   1_565 S
O5     Sm1     2.228   1_465 S
O5     C17     1.282   1_455 A
O6     C17     1.281   1_545 A
O7     C18     1.272   1_554 A
O8     Sm1     2.273   1_565 S
O8     C18     1.274   1_655 A
O9     Sm1     2.239   1_554 S
O9     C19     1.283   1_554 A
O10    Sm1     2.212   1_565 S
O10    C19     1.279   1_565 A
O11    C0      1.282   1_655 A
O11    Sm2     2.229   1_645 S
O12    C0      1.281   1_565 A
O13    C3      1.272   1_556 A
O14    Sm2     2.273   1_545 S
O14    C3      1.274   1_455 A
O15    Sm2     2.239   1_556 S
O15    C4      1.283   1_556 A
O16    Sm2     2.212   1_545 S
O16    C4      1.279   1_545 A
C17    O5      1.282   1_655 A
C17    O6      1.281   1_565 A
C17    C87     1.475   1_565 S
C18    O7      1.272   1_556 A
C18    O8      1.274   1_455 A
C18    C23     1.471   1_456 S
C19    O9      1.283   1_556 A
C19    O10     1.279   1_545 A
C19    C61     1.473   1_556 S
C20    C25     1.404   .     A
C20    C26     1.484   .     S
C20    C21     1.410   1_554 A
C21    C22     1.403   .     A
C21    H38     1.082   .     S
C21    C20     1.410   1_556 A
C22    H39     1.083   .     S
C22    C23     1.402   1_556 A
C23    C24     1.402   .     A
C23    C22     1.402   1_554 A
C23    C18     1.471   1_654 S
C24    C25     1.394   .     A
C24    H40     1.082   1_655 S
C25    H41     1.082   .     S
C26    N27     1.360   .     A
C26    N31     1.357   1_554 A
N27    N28     1.332   .     A
N28    C29     1.357   .     A
C29    C32     1.484   .     S
C29    N30     1.360   1_554 A
N30    N31     1.333   .     A
N30    C29     1.360   1_556 A
N31    C26     1.357   1_556 A
C32    C37     1.411   .     A
C32    C33     1.404   1_554 A
C33    C34     1.394   .     A
C33    H42     1.083   .     S
C33    C32     1.404   1_556 A
C34    H43     1.084   .     S
C34    C35     1.403   1_556 A
C35    C36     1.402   .     A
C35    C34     1.403   1_554 A
C36    C37     1.403   .     A
C36    H44     1.083   1_655 S
C37    H45     1.082   .     S
H40    C24     1.082   1_455 S
H44    C36     1.083   1_455 S
C46    C47     1.404   .     A
C46    C52     1.480   .     S
C46    C51     1.408   1_554 A
C47    H64     1.082   .     S
C47    C48     1.393   1_545 A
C48    H65     1.083   .     S
C48    C47     1.393   1_565 A
C48    C49     1.403   1_565 A
C49    C48     1.403   1_545 A
C49    C50     1.402   1_554 A
C49    C4      1.473   1_545 S
C50    C51     1.400   .     A
C50    H66     1.083   .     S
C50    C49     1.402   1_556 A
C51    H67     1.082   .     S
C51    C46     1.408   1_556 A
C52    N57     1.359   .     A
C52    N53     1.357   1_554 A
N53    N54     1.331   .     A
N53    C52     1.357   1_556 A
N54    C55     1.358   1_556 A
C55    N56     1.357   .     A
C55    C58     1.480   .     S
C55    N54     1.358   1_554 A
N56    N57     1.331   .     A
C58    C59     1.408   .     A
C58    C63     1.404   1_554 A
C59    H68     1.082   .     S
C59    C60     1.399   1_545 A
C60    H69     1.083   .     S
C60    C59     1.399   1_565 A
C60    C61     1.402   1_565 A
C61    C60     1.402   1_545 A
C61    C62     1.403   1_554 A
C61    C19     1.473   1_554 S
C62    C63     1.393   .     A
C62    H70     1.083   .     S
C62    C61     1.403   1_556 A
C63    H71     1.082   .     S
C63    C58     1.404   1_556 A
C72    C77     1.407   .     A
C72    C78     1.483   .     S
C72    C73     1.406   1_645 A
C73    C74     1.397   .     A
C73    H90     1.082   .     S
C73    C72     1.406   1_465 A
C74    H91     1.082   .     S
C74    C75     1.404   1_465 A
C75    C76     1.403   .     A
C75    C74     1.404   1_645 A
C75    C0      1.475   1_655 S
C76    C77     1.398   .     A
C76    H92     1.084   .     S
C77    H93     1.084   .     S
C78    N79     1.358   .     A
C78    N83     1.358   1_545 A
N79    N80     1.332   .     A
N80    C81     1.358   .     A
C81    C84     1.483   .     S
C81    N82     1.358   1_545 A
N82    N83     1.332   .     A
N82    C81     1.358   1_565 A
N83    C78     1.358   1_565 A
C84    C89     1.406   .     A
C84    C85     1.407   1_645 A
C85    C86     1.398   .     A
C85    H94     1.083   .     S
C85    C84     1.407   1_465 A
C86    H95     1.084   .     S
C86    C87     1.403   1_465 A
C87    C88     1.404   .     A
C87    C86     1.403   1_645 A
C87    C17     1.475   1_545 S
C88    C89     1.397   .     A
C88    H96     1.082   .     S
C89    H97     1.082   .     S
