data_pcu+N505+E220
_audit_creation_date              2023-11-17
_audit_creation_method            'Materials Studio'
_symmetry_space_group_name_H-M    'P1'
_symmetry_Int_Tables_number       1
_symmetry_cell_setting            triclinic
loop_
_symmetry_equiv_pos_as_xyz
  x,y,z
_cell_length_a                    9.2946
_cell_length_b                    14.5888
_cell_length_c                    12.5702
_cell_angle_alpha                 93.9085
_cell_angle_beta                  37.1929
_cell_angle_gamma                 82.2302
loop_
_atom_site_label
_atom_site_type_symbol
_atom_site_fract_x
_atom_site_fract_y
_atom_site_fract_z
_atom_site_U_iso_or_equiv
_atom_site_adp_type
_atom_site_occupancy
Yb0    Yb    1.03112   0.13434  -0.12501   0.00000  Uiso   1.00
Yb1    Yb    0.00170   0.86383   1.08111   0.00000  Uiso   1.00
C2     C     0.01818   0.69354   1.03467   0.00000  Uiso   1.00
O3     O     0.20635   0.02951   0.64957   0.00000  Uiso   1.00
O4     O     0.86584   0.14991   0.82256   0.00000  Uiso   1.00
O5     O     0.81968   0.04425   0.05510   0.00000  Uiso   1.00
O6     O     0.75995   0.90336   1.08853   0.00000  Uiso   1.00
O7     O     1.17653   0.24681   0.76028   0.00000  Uiso   1.00
O8     O     0.85439   0.26895   0.05969   0.00000  Uiso   1.00
O9     O     0.82896   0.96582   0.30880   0.00000  Uiso   1.00
O10    O     0.17113   0.84549   0.12991   0.00000  Uiso   1.00
C11    C     1.03765   0.07287   0.68351   0.00000  Uiso   1.00
O12    O     0.27240   0.09595  -0.13219   0.00000  Uiso   1.00
O13    O     0.21343   0.95512   0.90341   0.00000  Uiso   1.00
O14    O    -0.14802   0.75248   0.19691   0.00000  Uiso   1.00
C15    C     0.73675   0.98088   0.05670   0.00000  Uiso   1.00
O16    O     0.17684   0.72812   0.89749   0.00000  Uiso   1.00
C17    C     1.01240   0.30414  -0.07645   0.00000  Uiso   1.00
C18    C    -0.00115   0.92050   0.27272   0.00000  Uiso   1.00
C19    C     0.29180   0.02003   0.90434   0.00000  Uiso   1.00
C20    C     0.02259   0.59233   1.00707   0.00000  Uiso   1.00
C21    C    -0.07722   0.54177   0.13716   0.00000  Uiso   1.00
C22    C    -0.08848   0.44928   0.11114   0.00000  Uiso   1.00
C23    C     1.01026   0.40400  -0.04646   0.00000  Uiso   1.00
C24    C     1.11611   0.45293   0.82248   0.00000  Uiso   1.00
C25    C     1.11820   0.54670   0.85067   0.00000  Uiso   1.00
O26    O    -0.33053   0.55809   0.44184   0.00000  Uiso   1.00
O27    O    -0.01087   0.61871   1.26235   0.00000  Uiso   1.00
N28    N    -0.15245   0.57990   0.28895   0.00000  Uiso   1.00
H29    H     1.19298   0.41935   0.69989   0.00000  Uiso   1.00
H30    H     1.19105   0.58444   0.75118   0.00000  Uiso   1.00
H31    H    -0.16310   0.41040   0.20990   0.00000  Uiso   1.00
C32    C     0.39899   1.01147   0.94871   0.00000  Uiso   1.00
C33    C     0.34156   0.09152   0.05945   0.00000  Uiso   1.00
C34    C     0.45033   0.08040   0.09601   0.00000  Uiso   1.00
C35    C     0.62380  -0.00768   0.01751   0.00000  Uiso   1.00
C36    C     0.68074   0.91338   0.90770   0.00000  Uiso   1.00
C37    C     0.57167   0.92324   0.87184   0.00000  Uiso   1.00
O38    O    -0.02421   0.22388   0.31342   0.00000  Uiso   1.00
O39    O     0.25138   0.23877   1.03023   0.00000  Uiso   1.00
N40    N     0.17376   0.18432   0.13606   0.00000  Uiso   1.00
H41    H     0.81295   0.84441   0.84719   0.00000  Uiso   1.00
H42    H     0.62252   0.86183   0.78344   0.00000  Uiso   1.00
H43    H     0.40253   0.14121   0.18341   0.00000  Uiso   1.00
C44    C     1.00280   0.95542   0.38374   0.00000  Uiso   1.00
C45    C     0.15419   0.89716   0.37051   0.00000  Uiso   1.00
C46    C     0.17158   0.93780   0.46321   0.00000  Uiso   1.00
C47    C     0.03426   0.03410   0.57435   0.00000  Uiso   1.00
C48    C     0.88058   0.09069   0.59042   0.00000  Uiso   1.00
C49    C     0.86510   0.05175   0.49628   0.00000  Uiso   1.00
O50    O     0.50381   0.75630   0.17700   0.00000  Uiso   1.00
O51    O     0.15520   0.74033   0.30816   0.00000  Uiso   1.00
N52    N     0.28075   0.79593   0.27226   0.00000  Uiso   1.00
H53    H     0.77149   0.16514   0.67637   0.00000  Uiso   1.00
H54    H     0.74710   0.09780   0.50976   0.00000  Uiso   1.00
H55    H     0.28444   0.89253   0.45480   0.00000  Uiso   1.00
loop_
_geom_bond_atom_site_label_1
_geom_bond_atom_site_label_2
_geom_bond_distance
_geom_bond_site_symmetry_2
_ccdc_geom_bond_type
Yb0    O5      2.175   .     S
Yb0    O8      2.092   .     S
Yb0    O3      2.099   1_654 S
Yb0    O4      2.094   1_554 S
Yb0    O7      2.101   1_554 S
Yb0    O12     2.164   1_655 S
Yb1    O13     2.179   .     S
Yb1    O16     2.102   .     S
Yb1    O6      2.168   1_455 S
Yb1    O9      2.106   1_456 S
Yb1    O10     2.092   1_556 S
Yb1    O14     2.098   1_556 S
C2     O16     1.293   .     A
C2     C20     1.481   .     S
C2     O14     1.291   1_556 A
O3     Yb0     2.099   1_456 S
O3     C11     1.292   1_455 A
O4     C11     1.292   .     A
O4     Yb0     2.094   1_556 S
O5     C15     1.273   1_545 A
O6     Yb1     2.168   1_655 S
O6     C15     1.272   1_556 A
O7     Yb0     2.101   1_556 S
O7     C17     1.293   1_556 A
O8     C17     1.292   .     A
O9     Yb1     2.106   1_654 S
O9     C18     1.293   1_655 A
O10    C18     1.290   .     A
O10    Yb1     2.092   1_554 S
C11    O3      1.292   1_655 A
C11    C47     1.474   1_655 S
O12    Yb0     2.164   1_455 S
O12    C19     1.272   1_554 A
O13    C19     1.275   1_565 A
O14    Yb1     2.098   1_554 S
O14    C2      1.291   1_554 A
C15    O5      1.273   1_565 A
C15    O6      1.272   1_554 A
C15    C35     1.470   1_565 S
C17    C23     1.473   .     S
C17    O7      1.293   1_554 A
C18    O9      1.293   1_455 A
C18    C44     1.483   1_455 S
C19    O12     1.272   1_556 A
C19    O13     1.275   1_545 A
C19    C32     1.477   1_545 S
C20    C21     1.418   1_556 A
C20    C25     1.406   1_455 A
C21    C22     1.404   .     A
C21    N28     1.436   .     S
C21    C20     1.418   1_554 A
C22    H31     1.084   .     S
C22    C23     1.401   1_455 A
C23    C22     1.401   1_655 A
C23    C24     1.400   1_554 A
C24    C25     1.396   .     A
C24    H29     1.083   .     S
C24    C23     1.400   1_556 A
C25    H30     1.082   .     S
C25    C20     1.406   1_655 A
O26    N28     1.301   .     A
O27    N28     1.300   1_556 A
N28    O27     1.300   1_554 A
C32    C37     1.403   .     A
C32    C33     1.419   1_566 A
C32    C19     1.477   1_565 S
C33    C34     1.402   .     A
C33    N40     1.432   .     S
C33    C32     1.419   1_544 A
C34    C35     1.399   .     A
C34    H43     1.084   .     S
C35    C36     1.402   1_544 A
C35    C15     1.470   1_545 S
C36    C37     1.396   .     A
C36    H41     1.083   .     S
C36    C35     1.402   1_566 A
C37    H42     1.083   .     S
O38    N40     1.300   .     A
O39    N40     1.300   1_556 A
N40    O39     1.300   1_554 A
C44    C45     1.419   1_655 A
C44    C49     1.404   1_565 A
C44    C18     1.483   1_655 S
C45    C46     1.403   .     A
C45    N52     1.434   .     S
C45    C44     1.419   1_455 A
C46    H55     1.084   .     S
C46    C47     1.400   1_565 A
C47    C46     1.400   1_545 A
C47    C48     1.401   1_455 A
C47    C11     1.474   1_455 S
C48    C49     1.395   .     A
C48    H53     1.083   .     S
C48    C47     1.401   1_655 A
C49    H54     1.083   .     S
C49    C44     1.404   1_545 A
O50    N52     1.301   .     A
O51    N52     1.300   .     A
