data_pcu+N173+E220
_audit_creation_date              2023-11-17
_audit_creation_method            'Materials Studio'
_symmetry_space_group_name_H-M    'P1'
_symmetry_Int_Tables_number       1
_symmetry_cell_setting            triclinic
loop_
_symmetry_equiv_pos_as_xyz
  x,y,z
_cell_length_a                    11.1408
_cell_length_b                    13.6726
_cell_length_c                    9.7634
_cell_angle_alpha                 129.8552
_cell_angle_beta                  81.3867
_cell_angle_gamma                 66.2463
loop_
_atom_site_label
_atom_site_type_symbol
_atom_site_fract_x
_atom_site_fract_y
_atom_site_fract_z
_atom_site_U_iso_or_equiv
_atom_site_adp_type
_atom_site_occupancy
Gd0    Gd    0.14844   0.76631   0.81583   0.00000  Uiso   1.00
Gd1    Gd    0.85676   0.25353   0.19129   0.00000  Uiso   1.00
O2     O     0.77194   0.10051   0.05381   0.00000  Uiso   1.00
O3     O     0.91222   0.83524   0.88351   0.00000  Uiso   1.00
O4     O     1.11880   0.80264   0.62652   0.00000  Uiso   1.00
O5     O     0.08573   0.02927   0.85864   0.00000  Uiso   1.00
O6     O     0.15852   0.69364   0.96376   0.00000  Uiso   1.00
O7     O     1.00999   0.69366   0.84552   0.00000  Uiso   1.00
O8     O     0.31543   0.81549   0.83624   0.00000  Uiso   1.00
C9     C     0.06700   0.66058   0.92854   0.00000  Uiso   1.00
O10    O     0.13269   0.09289   0.05300   0.00000  Uiso   1.00
O11    O    -0.02880   1.02800   0.13498   0.00000  Uiso   1.00
C12    C     1.08916  -0.07007   0.69235   0.00000  Uiso   1.00
O13    O     0.83380   0.27457   0.44526   0.00000  Uiso   1.00
O14    O     0.85174   0.32648   1.04356   0.00000  Uiso   1.00
O15    O    -0.09570   0.42244   0.28322   0.00000  Uiso   1.00
C16    C     0.79019  -0.03226  -0.04006   0.00000  Uiso   1.00
C17    C     0.89102   0.41284   0.14792   0.00000  Uiso   1.00
C18    C    -0.08243   1.12411   0.33163   0.00000  Uiso   1.00
C19    C     0.27642   0.95908   0.94922   0.00000  Uiso   1.00
C20    C     0.02635   0.59383   0.98262   0.00000  Uiso   1.00
C21    C     0.10666   0.53462   0.04394   0.00000  Uiso   1.00
C22    C     0.05275   0.48710   0.11171   0.00000  Uiso   1.00
C23    C    -0.07071   0.48493   0.10398   0.00000  Uiso   1.00
C24    C     0.85601   0.53474   1.03215   0.00000  Uiso   1.00
C25    C     0.90193   0.59170   0.97612   0.00000  Uiso   1.00
O26    O     0.27823   0.53338   0.16111   0.00000  Uiso   1.00
O27    O     0.36838   0.42270  -0.16307   0.00000  Uiso   1.00
N28    N     0.25031   0.50805   0.02115   0.00000  Uiso   1.00
H29    H     0.76252   0.53066   1.02082   0.00000  Uiso   1.00
H30    H     0.84029   0.63336   0.92622   0.00000  Uiso   1.00
H31    H     0.11572   0.43945   0.15492   0.00000  Uiso   1.00
C32    C     0.40363  -0.03002   0.95472   0.00000  Uiso   1.00
C33    C     0.36972   0.12515   0.11906   0.00000  Uiso   1.00
C34    C     0.49783   0.12334   0.11128   0.00000  Uiso   1.00
C35    C     0.65781   0.97079   0.95097   0.00000  Uiso   1.00
C36    C     0.69029   0.81880   0.79014   0.00000  Uiso   1.00
C37    C     0.56549   0.81847   0.79061   0.00000  Uiso   1.00
O38    O     0.11005   0.29948   0.42022   0.00000  Uiso   1.00
O39    O     0.17255   0.42016   0.38142   0.00000  Uiso   1.00
N40    N     0.20830   0.28388   0.30220   0.00000  Uiso   1.00
H41    H     0.81304   0.69934   0.66422   0.00000  Uiso   1.00
H42    H     0.59633   0.69787   0.66237   0.00000  Uiso   1.00
H43    H     0.47151   0.24122   0.23970   0.00000  Uiso   1.00
C44    C     0.95983   0.06802   0.41734   0.00000  Uiso   1.00
C45    C     0.88810   0.01740   0.46131   0.00000  Uiso   1.00
C46    C     0.94012  -0.03786   0.53884   0.00000  Uiso   1.00
C47    C     1.05194  -0.03279   0.58556   0.00000  Uiso   1.00
C48    C     0.11721   1.02255   0.54815   0.00000  Uiso   1.00
C49    C     0.07334   1.06997   0.46186   0.00000  Uiso   1.00
O50    O     0.70242  -0.02699   0.47190   0.00000  Uiso   1.00
O51    O     0.69185   0.09896   0.39734   0.00000  Uiso   1.00
N52    N     0.76056   0.02605   0.43668   0.00000  Uiso   1.00
H53    H     0.20208   1.02938   0.58635   0.00000  Uiso   1.00
H54    H     0.12742   1.10999   0.43152   0.00000  Uiso   1.00
H55    H     0.88779  -0.07733   0.57344   0.00000  Uiso   1.00
loop_
_geom_bond_atom_site_label_1
_geom_bond_atom_site_label_2
_geom_bond_distance
_geom_bond_site_symmetry_2
_ccdc_geom_bond_type
Gd0    O6      2.210   .     S
Gd0    O8      2.214   .     S
Gd0    O3      2.221   1_455 S
Gd0    O4      2.236   1_455 S
Gd0    O7      2.218   1_455 S
Gd0    O11     2.142   1_556 S
Gd1    O2      2.333   .     S
Gd1    O13     2.266   .     S
Gd1    O5      2.216   1_654 S
Gd1    O10     2.369   1_655 S
Gd1    O14     2.214   1_554 S
Gd1    O15     2.211   1_655 S
O2     C16     1.300   .     A
O3     Gd0     2.221   1_655 S
O3     C16     1.291   1_566 A
O4     Gd0     2.236   1_655 S
O4     C12     1.261   1_565 A
O5     Gd1     2.216   1_456 S
O5     C12     1.263   1_455 A
O6     C9      1.280   .     A
O7     Gd0     2.218   1_655 S
O7     C9      1.287   1_655 A
O8     C19     1.286   .     A
C9     C20     1.482   .     S
C9     O7      1.287   1_455 A
O10    Gd1     2.369   1_455 S
O10    C19     1.310   1_544 A
O11    C18     1.249   .     A
O11    Gd0     2.142   1_554 S
C12    C47     1.469   .     S
C12    O4      1.261   1_545 A
C12    O5      1.263   1_655 A
O13    C18     1.246   1_645 A
O14    Gd1     2.214   1_556 S
O14    C17     1.277   1_556 A
O15    Gd1     2.211   1_455 S
O15    C17     1.279   1_455 A
C16    O3      1.291   1_544 A
C16    C35     1.476   1_544 S
C17    O14     1.277   1_554 A
C17    O15     1.279   1_655 A
C17    C23     1.471   1_655 S
C18    O13     1.246   1_465 A
C18    C44     1.470   1_465 S
C19    O10     1.310   1_566 A
C19    C32     1.489   1_565 S
C20    C21     1.419   1_556 A
C20    C25     1.408   1_455 A
C21    C22     1.402   .     A
C21    N28     1.437   .     S
C21    C20     1.419   1_554 A
C22    C23     1.400   .     A
C22    H31     1.080   .     S
C23    C24     1.399   1_454 A
C23    C17     1.471   1_455 S
C24    C25     1.397   .     A
C24    H29     1.083   .     S
C24    C23     1.399   1_656 A
C25    H30     1.084   .     S
C25    C20     1.408   1_655 A
O26    N28     1.301   .     A
O27    N28     1.301   .     A
C32    C33     1.424   1_556 A
C32    C37     1.408   1_545 A
C32    C19     1.489   1_545 S
C33    C34     1.407   .     A
C33    N40     1.435   .     S
C33    C32     1.424   1_554 A
C34    H43     1.084   .     S
C34    C35     1.401   1_544 A
C35    C36     1.399   .     A
C35    C34     1.401   1_566 A
C35    C16     1.476   1_566 S
C36    C37     1.392   .     A
C36    H41     1.083   .     S
C37    H42     1.083   .     S
C37    C32     1.408   1_565 A
O38    N40     1.300   .     A
O39    N40     1.301   .     A
C44    C45     1.423   .     A
C44    C49     1.402   1_645 A
C44    C18     1.470   1_645 S
C45    C46     1.411   .     A
C45    N52     1.447   .     S
C46    C47     1.401   .     A
C46    H55     1.083   .     S
C47    C48     1.397   1_645 A
C48    C49     1.392   .     A
C48    H53     1.084   .     S
C48    C47     1.397   1_465 A
C49    H54     1.082   .     S
C49    C44     1.402   1_465 A
O50    N52     1.302   .     A
O51    N52     1.300   .     A
