data_pcu+N394+E225
_audit_creation_date              2023-11-17
_audit_creation_method            'Materials Studio'
_symmetry_space_group_name_H-M    'P1'
_symmetry_Int_Tables_number       1
_symmetry_cell_setting            triclinic
loop_
_symmetry_equiv_pos_as_xyz
  x,y,z
_cell_length_a                    22.4795
_cell_length_b                    20.0531
_cell_length_c                    19.1021
_cell_angle_alpha                 82.6330
_cell_angle_beta                  89.0724
_cell_angle_gamma                 80.3784
loop_
_atom_site_label
_atom_site_type_symbol
_atom_site_fract_x
_atom_site_fract_y
_atom_site_fract_z
_atom_site_U_iso_or_equiv
_atom_site_adp_type
_atom_site_occupancy
Pr0    Pr    0.06126   1.00186  -0.00455   0.00000  Uiso   1.00
Pr1    Pr    0.93270   0.01040   1.01164   0.00000  Uiso   1.00
O2     O     0.93546   0.12518   1.00180   0.00000  Uiso   1.00
O3     O     0.03755   0.11827  -0.00914   0.00000  Uiso   1.00
O4     O     0.14718  -0.00036   0.93101   0.00000  Uiso   1.00
O5     O     0.15460   0.99190   0.04419   0.00000  Uiso   1.00
O6     O     1.00523   0.99959   0.09426   0.00000  Uiso   1.00
O7     O     0.10425   0.99156   0.10382   0.00000  Uiso   1.00
C8     C     0.93718   0.01927   0.87055   0.00000  Uiso   1.00
C9     C     0.98369   0.15299  -0.00558   0.00000  Uiso   1.00
C10    C     0.18181  -0.00627   0.98468   0.00000  Uiso   1.00
C11    C     0.81217   0.01846   0.02250   0.00000  Uiso   1.00
C12    C     0.01027   0.85928   1.01273   0.00000  Uiso   1.00
C13    C     0.05674   0.99294   0.13656   0.00000  Uiso   1.00
O14    O     0.05850   0.88708   0.00530   0.00000  Uiso   1.00
O15    O     0.95641   0.89400   1.01626   0.00000  Uiso   1.00
O16    O     0.84682   1.01255   0.07614   0.00000  Uiso   1.00
O17    O     0.83933   0.02037   0.96295   0.00000  Uiso   1.00
O18    O    -0.01127   0.01266   0.91280   0.00000  Uiso   1.00
O19    O     0.88969   0.02069   0.90332   0.00000  Uiso   1.00
C20    C     0.01703   0.78398   1.01736   0.00000  Uiso   1.00
C21    C     0.96606   0.75143   1.02388   0.00000  Uiso   1.00
C22    C     0.97244   0.68048   1.02815   0.00000  Uiso   1.00
C23    C     1.03005   0.64056   0.02490   0.00000  Uiso   1.00
C24    C     1.08080   0.67282   0.02008   0.00000  Uiso   1.00
C25    C     0.07454   0.74376   0.01579   0.00000  Uiso   1.00
C26    C     0.99569   0.53981   0.99910   0.00000  Uiso   1.00
H27    H     1.07288   0.23152  -0.01772   0.00000  Uiso   1.00
H28    H     1.06160   0.35519  -0.02622   0.00000  Uiso   1.00
H29    H     0.86845   0.36956   0.98750   0.00000  Uiso   1.00
H30    H     0.87909   0.24532   0.99480   0.00000  Uiso   1.00
H31    H     1.03288   0.44147   0.04375   0.00000  Uiso   1.00
O32    O     0.95475   0.44323   0.97700   0.00000  Uiso   1.00
O33    O     1.03914   0.56896   0.03111   0.00000  Uiso   1.00
C34    C     0.97693   0.22826  -0.01004   0.00000  Uiso   1.00
C35    C     1.02793   0.26078  -0.01583   0.00000  Uiso   1.00
C36    C     1.02155   0.33170  -0.01981   0.00000  Uiso   1.00
C37    C     0.96389   0.37164   0.98294   0.00000  Uiso   1.00
C38    C     0.91313   0.33942   0.98694   0.00000  Uiso   1.00
C39    C     0.91940   0.26850   0.99102   0.00000  Uiso   1.00
C40    C     0.99817   0.47240   0.00906   0.00000  Uiso   1.00
H41    H     0.93245   0.65694   1.03519   0.00000  Uiso   1.00
H42    H     1.12544   0.64268   0.01913   0.00000  Uiso   1.00
H43    H     0.92114   0.78067   1.02620   0.00000  Uiso   1.00
H44    H     0.96097   0.57076   0.96441   0.00000  Uiso   1.00
H45    H     0.11483   0.76697   0.01149   0.00000  Uiso   1.00
C46    C     0.24785   0.98945   0.97866   0.00000  Uiso   1.00
C47    C     0.28358   0.98510   0.03923   0.00000  Uiso   1.00
C48    C     0.34610   0.98137   0.03356   0.00000  Uiso   1.00
C49    C     0.37394  -0.01710  -0.03315   0.00000  Uiso   1.00
C50    C     0.33836  -0.01457   0.90682   0.00000  Uiso   1.00
C51    C     0.27583  -0.01072   0.91241   0.00000  Uiso   1.00
C52    C     0.46701   1.01026   0.00382   0.00000  Uiso   1.00
H53    H     0.73052   0.02920   0.91606   0.00000  Uiso   1.00
H54    H     0.62121   0.03671   0.92601   0.00000  Uiso   1.00
H55    H     0.63496   1.02527   0.15214   0.00000  Uiso   1.00
H56    H     0.74478   1.01870   0.14248   0.00000  Uiso   1.00
H57    H     0.55161  -0.03303  -0.03068   0.00000  Uiso   1.00
O58    O     0.55733   1.03422   0.04913   0.00000  Uiso   1.00
O59    O     0.43674  -0.02271  -0.04166   0.00000  Uiso   1.00
C60    C     0.74614   0.02260   0.02857   0.00000  Uiso   1.00
C61    C     0.71030   0.02759   0.96798   0.00000  Uiso   1.00
C62    C     0.64781   0.03108  -0.02626   0.00000  Uiso   1.00
C63    C     0.62011   1.02871   0.04055   0.00000  Uiso   1.00
C64    C     0.65579   1.02554   0.10062   0.00000  Uiso   1.00
C65    C     0.71829   1.02189   0.09495   0.00000  Uiso   1.00
C66    C     0.52710   0.00131   0.00356   0.00000  Uiso   1.00
H67    H     0.37259   0.97618   0.08133   0.00000  Uiso   1.00
H68    H     0.35929  -0.01498   0.85540   0.00000  Uiso   1.00
H69    H     0.26325   0.98422   0.09107   0.00000  Uiso   1.00
H70    H     0.44254   1.04470   0.03799   0.00000  Uiso   1.00
H71    H     0.24943  -0.00806   0.86491   0.00000  Uiso   1.00
C72    C     1.05411  -0.01195   0.21422   0.00000  Uiso   1.00
C73    C     0.99838  -0.00960   0.24881   0.00000  Uiso   1.00
C74    C     0.99559  -0.01426   0.32240   0.00000  Uiso   1.00
C75    C     0.04866   0.97962   0.36270   0.00000  Uiso   1.00
C76    C     0.10426   0.97561   0.32811   0.00000  Uiso   1.00
C77    C     0.10710   0.98032   0.25452   0.00000  Uiso   1.00
C78    C     0.99982   0.01072   0.46860   0.00000  Uiso   1.00
H79    H     0.03683   1.01754   0.78784   0.00000  Uiso   1.00
H80    H     0.04143   1.02685   0.65918   0.00000  Uiso   1.00
H81    H     0.84816   0.04190   0.64891   0.00000  Uiso   1.00
H82    H     0.84314   0.03356   0.77820   0.00000  Uiso   1.00
H83    H     0.02585   0.96249   0.56946   0.00000  Uiso   1.00
O84    O     0.94491   0.03931   0.57026   0.00000  Uiso   1.00
O85    O     0.04862   0.97260   0.43687   0.00000  Uiso   1.00
C86    C    -0.06027   0.02410   0.79289   0.00000  Uiso   1.00
C87    C    -0.00462   1.02211   0.75817   0.00000  Uiso   1.00
C88    C    -0.00194   1.02668   0.68457   0.00000  Uiso   1.00
C89    C     0.94497   0.03233   0.64442   0.00000  Uiso   1.00
C90    C     0.88945   0.03596   0.67915   0.00000  Uiso   1.00
C91    C     0.88671   0.03130   0.75275   0.00000  Uiso   1.00
C92    C    -0.00629   0.00122   0.53851   0.00000  Uiso   1.00
H93    H     0.95215  -0.01425   0.34767   0.00000  Uiso   1.00
H94    H     0.14553   0.96926   0.35848   0.00000  Uiso   1.00
H95    H     0.95693  -0.00462   0.21902   0.00000  Uiso   1.00
H96    H     0.96769   0.04945   0.43767   0.00000  Uiso   1.00
H97    H     0.15075   0.97764   0.22924   0.00000  Uiso   1.00
loop_
_geom_bond_atom_site_label_1
_geom_bond_atom_site_label_2
_geom_bond_distance
_geom_bond_site_symmetry_2
_ccdc_geom_bond_type
Pr0    O5      2.277   .     S
Pr0    O7      2.269   .     S
Pr0    O14     2.296   .     S
Pr0    O3      2.296   1_565 S
Pr0    O4      2.271   1_564 S
Pr0    O6      2.252   1_455 S
Pr0    O18     2.253   1_564 S
Pr1    O2      2.296   .     S
Pr1    O17     2.277   .     S
Pr1    O19     2.269   .     S
Pr1    O6      2.252   1_546 S
Pr1    O15     2.296   1_545 S
Pr1    O16     2.271   1_546 S
Pr1    O18     2.252   1_655 S
O2     C9      1.297   1_556 A
O3     Pr0     2.296   1_545 S
O3     C9      1.297   1_455 A
O4     C10     1.279   .     A
O4     Pr0     2.271   1_546 S
O5     C10     1.281   1_564 A
O6     Pr0     2.252   1_655 S
O6     Pr1     2.252   1_564 S
O6     C13     1.401   1_655 S
O7     C13     1.227   .     D
C8     O19     1.227   .     D
C8     O18     1.401   1_655 S
C8     C86     1.475   1_655 S
C9     C34     1.483   .     S
C9     O2      1.297   1_554 A
C9     O3      1.297   1_655 A
C10    O5      1.281   1_546 A
C10    C46     1.476   1_545 S
C11    C60     1.476   .     S
C11    O16     1.279   1_545 A
C11    O17     1.281   1_554 A
C12    C20     1.483   .     S
C12    O14     1.297   1_556 A
C12    O15     1.297   1_455 A
C13    O6      1.401   1_455 S
C13    C72     1.475   1_465 S
O14    C12     1.297   1_554 A
O15    Pr1     2.296   1_565 S
O15    C12     1.297   1_655 A
O16    Pr1     2.271   1_564 S
O16    C11     1.279   1_565 A
O17    C11     1.281   1_556 A
O18    Pr0     2.253   1_546 S
O18    Pr1     2.252   1_455 S
O18    C8      1.401   1_455 S
C20    C21     1.407   1_455 A
C20    C25     1.407   1_556 A
C21    C22     1.398   .     A
C21    H43     1.083   .     S
C21    C20     1.407   1_655 A
C22    H41     1.082   .     S
C22    C23     1.409   1_556 A
C23    C24     1.399   .     A
C23    O33     1.406   .     S
C23    C22     1.409   1_554 A
C24    H42     1.083   .     S
C24    C25     1.398   1_655 A
C25    H45     1.083   .     S
C25    C20     1.407   1_554 A
C25    C24     1.398   1_455 A
C26    H44     1.088   .     S
C26    O33     1.404   1_556 S
C26    C40     1.333   1_556 D
H27    C35     1.083   .     S
H28    C36     1.082   .     S
H29    C38     1.083   .     S
H30    C39     1.083   .     S
H31    C40     1.087   .     S
O32    C37     1.406   .     S
O32    C40     1.404   1_556 S
O33    C26     1.404   1_554 S
C34    C35     1.407   .     A
C34    C39     1.407   1_554 A
C35    C36     1.398   .     A
C36    C37     1.409   1_554 A
C37    C38     1.399   .     A
C37    C36     1.409   1_556 A
C38    C39     1.398   .     A
C39    C34     1.407   1_556 A
C40    C26     1.333   1_554 D
C40    O32     1.404   1_554 S
C46    C47     1.404   1_556 A
C46    C51     1.404   1_565 A
C46    C10     1.476   1_565 S
C47    C48     1.398   .     A
C47    H69     1.083   .     S
C47    C46     1.404   1_554 A
C48    H67     1.082   .     S
C48    C49     1.410   1_565 A
C49    O59     1.406   .     S
C49    C48     1.410   1_545 A
C49    C50     1.399   1_554 A
C50    C51     1.398   .     A
C50    H68     1.083   .     S
C50    C49     1.399   1_556 A
C51    H71     1.083   .     S
C51    C46     1.404   1_545 A
C52    H70     1.088   .     S
C52    O59     1.404   1_565 S
C52    C66     1.333   1_565 D
H53    C61     1.083   .     S
H54    C62     1.082   1_556 S
H55    C64     1.083   .     S
H56    C65     1.083   .     S
H57    C66     1.088   .     S
O58    C63     1.406   .     S
O58    C66     1.404   1_565 S
O59    C52     1.404   1_545 S
C60    C61     1.404   1_554 A
C60    C65     1.404   1_545 A
C61    C60     1.404   1_556 A
C61    C62     1.398   1_556 A
C62    H54     1.082   1_554 S
C62    C61     1.398   1_554 A
C62    C63     1.410   1_545 A
C63    C64     1.399   .     A
C63    C62     1.410   1_565 A
C64    C65     1.398   .     A
C65    C60     1.404   1_565 A
C66    C52     1.333   1_545 D
C66    O58     1.404   1_545 S
C72    C73     1.404   .     A
C72    C77     1.405   1_645 A
C72    C13     1.475   1_645 S
C73    C74     1.398   .     A
C73    H95     1.083   .     S
C74    H93     1.082   .     S
C74    C75     1.410   1_645 A
C75    C76     1.399   .     A
C75    O85     1.406   .     S
C75    C74     1.410   1_465 A
C76    C77     1.398   .     A
C76    H94     1.083   .     S
C77    H97     1.083   .     S
C77    C72     1.405   1_465 A
C78    H96     1.088   .     S
C78    O85     1.404   1_645 S
C78    C92     1.333   1_655 D
H79    C87     1.083   .     S
H80    C88     1.082   .     S
H81    C90     1.083   .     S
H82    C91     1.083   .     S
H83    C92     1.088   1_565 S
O84    C89     1.406   .     S
O84    C92     1.404   1_655 S
O85    C78     1.404   1_465 S
C86    C87     1.404   1_545 A
C86    C91     1.405   1_455 A
C86    C8      1.475   1_455 S
C87    C88     1.398   .     A
C87    C86     1.404   1_565 A
C88    C89     1.410   1_465 A
C89    C90     1.400   .     A
C89    C88     1.410   1_645 A
C90    C91     1.398   .     A
C91    C86     1.405   1_655 A
C92    C78     1.333   1_455 D
C92    H83     1.088   1_545 S
C92    O84     1.404   1_455 S
