data_pcu+N139+E70
_audit_creation_date              2023-11-17
_audit_creation_method            'Materials Studio'
_symmetry_space_group_name_H-M    'P1'
_symmetry_Int_Tables_number       1
_symmetry_cell_setting            triclinic
loop_
_symmetry_equiv_pos_as_xyz
  x,y,z
_cell_length_a                    12.4091
_cell_length_b                    8.5393
_cell_length_c                    12.0324
_cell_angle_alpha                 98.0732
_cell_angle_beta                  91.7978
_cell_angle_gamma                 40.9180
loop_
_atom_site_label
_atom_site_type_symbol
_atom_site_fract_x
_atom_site_fract_y
_atom_site_fract_z
_atom_site_U_iso_or_equiv
_atom_site_adp_type
_atom_site_occupancy
C0     C     0.17777  -0.14137   0.34015   0.00000  Uiso   1.00
Sm1    Sm    0.70930   0.23732   0.86878   0.00000  Uiso   1.00
Sm2    Sm    0.11355   0.96218   0.13582   0.00000  Uiso   1.00
C3     C     0.82861   0.41138   0.00335   0.00000  Uiso   1.00
C4     C     0.28588   0.96242   0.01455   0.00000  Uiso   1.00
O5     O    -0.01368   0.91608   0.80548   0.00000  Uiso   1.00
O6     O     0.82612   0.19661   0.71125   0.00000  Uiso   1.00
O7     O     0.06198   0.75683   0.09344   0.00000  Uiso   1.00
O8     O     0.95216   0.93702   0.94554   0.00000  Uiso   1.00
O9     O     0.59130   0.18738  -0.02668   0.00000  Uiso   1.00
O10    O     0.68584   1.01232   0.79915   0.00000  Uiso   1.00
O11    O     1.03345   0.05083   0.31670   0.00000  Uiso   1.00
O12    O     0.29355   0.71982   0.25679   0.00000  Uiso   1.00
O13    O     0.71292   0.48951   0.94647   0.00000  Uiso   1.00
O14    O    -0.12779   0.27654   0.07223   0.00000  Uiso   1.00
O15    O     0.26144   0.84375   0.97886   0.00000  Uiso   1.00
O16    O     0.22094   0.08290   0.11610   0.00000  Uiso   1.00
C17    C     0.97227   0.99352   0.71755   0.00000  Uiso   1.00
C18    C    -0.00922   0.79009   1.00536   0.00000  Uiso   1.00
C19    C     0.60487   0.06313   0.88794   0.00000  Uiso   1.00
N20    N     0.91545   0.59589   0.03086   0.00000  Uiso   1.00
H21    H     0.07929   0.52847   0.79109   0.00000  Uiso   1.00
C22    C     0.97395   0.63947   0.96532   0.00000  Uiso   1.00
C23    C     0.02484   0.52076   0.85511   0.00000  Uiso   1.00
C24    C    -0.07890   0.44496   0.96825   0.00000  Uiso   1.00
S25    S    -0.00564   0.35741   0.82824   0.00000  Uiso   1.00
N26    N     0.43784   0.03901  -0.02669   0.00000  Uiso   1.00
H27    H     0.38634   0.78329   0.78536   0.00000  Uiso   1.00
C28    C     0.37897   0.95941   0.93971   0.00000  Uiso   1.00
C29    C     0.42174   0.85797   0.82678   0.00000  Uiso   1.00
C30    C     0.52774   0.99220   0.88440   0.00000  Uiso   1.00
S31    S     0.53934   0.85627   0.75807   0.00000  Uiso   1.00
N32    N     1.06756  -0.04561   0.53227   0.00000  Uiso   1.00
H33    H     0.45982   0.45003   0.43910   0.00000  Uiso   1.00
C34    C     0.19939   0.80469   0.45469   0.00000  Uiso   1.00
C35    C     0.34160   0.59567   0.49099   0.00000  Uiso   1.00
C36    C     0.10543   0.86416   0.62749   0.00000  Uiso   1.00
S37    S     0.30834   0.58552   0.62616   0.00000  Uiso   1.00
loop_
_geom_bond_atom_site_label_1
_geom_bond_atom_site_label_2
_geom_bond_distance
_geom_bond_site_symmetry_2
_ccdc_geom_bond_type
C0     O11     1.279   1_455 A
C0     O12     1.288   1_545 A
C0     C34     1.467   1_545 S
Sm1    O6      2.245   .     S
Sm1    O13     2.257   .     S
Sm1    O5      2.291   1_645 S
Sm1    O8      2.307   1_545 S
Sm1    O9      2.262   1_556 S
Sm1    O10     2.204   1_545 S
Sm2    O7      2.273   .     S
Sm2    O12     2.247   .     S
Sm2    O11     2.199   1_465 S
Sm2    O14     2.246   1_565 S
Sm2    O15     2.199   1_554 S
Sm2    O16     2.249   1_565 S
C3     O13     1.262   1_554 A
C3     O14     1.266   1_655 A
C3     C24     1.463   1_654 S
C4     O15     1.280   1_554 A
C4     O16     1.287   1_565 A
C4     C28     1.470   1_554 S
O5     Sm1     2.291   1_465 S
O5     C17     1.264   1_455 A
O6     C17     1.256   1_545 A
O7     C18     1.277   1_554 A
O8     Sm1     2.307   1_565 S
O8     C18     1.283   1_655 A
O9     Sm1     2.262   1_554 S
O9     C19     1.282   1_554 A
O10    Sm1     2.204   1_565 S
O10    C19     1.272   1_565 A
O11    C0      1.279   1_655 A
O11    Sm2     2.199   1_645 S
O12    C0      1.288   1_565 A
O13    C3      1.262   1_556 A
O14    Sm2     2.246   1_545 S
O14    C3      1.266   1_455 A
O15    Sm2     2.199   1_556 S
O15    C4      1.280   1_556 A
O16    Sm2     2.249   1_545 S
O16    C4      1.287   1_545 A
C17    O5      1.264   1_655 A
C17    O6      1.256   1_565 A
C17    C36     1.464   1_655 S
C18    O7      1.277   1_556 A
C18    O8      1.283   1_455 A
C18    C22     1.468   1_455 S
C19    O9      1.282   1_556 A
C19    O10     1.272   1_545 A
C19    C30     1.467   1_545 S
N20    C22     1.347   1_554 A
N20    C24     1.352   1_654 A
H21    C23     1.081   .     S
C22    N20     1.347   1_556 A
C22    C23     1.376   1_655 A
C22    C18     1.468   1_655 S
C23    S25     1.690   .     A
C23    C22     1.376   1_455 A
C24    S25     1.714   .     A
C24    N20     1.352   1_456 A
C24    C3      1.463   1_456 S
N26    C28     1.347   1_544 A
N26    C30     1.353   1_544 A
H27    C29     1.081   .     S
C28    C29     1.378   .     A
C28    N26     1.347   1_566 A
C28    C4      1.470   1_556 S
C29    S31     1.689   .     A
C30    S31     1.716   .     A
C30    N26     1.353   1_566 A
C30    C19     1.467   1_565 S
N32    C34     1.335   1_645 A
N32    C36     1.339   1_645 A
H33    C35     1.082   .     S
C34    C35     1.379   .     A
C34    N32     1.335   1_465 A
C34    C0      1.467   1_565 S
C35    S37     1.720   .     A
C36    S37     1.714   .     A
C36    N32     1.339   1_465 A
C36    C17     1.464   1_455 S
