data_pcu+N173+E183
_audit_creation_date              2023-11-17
_audit_creation_method            'Materials Studio'
_symmetry_space_group_name_H-M    'P1'
_symmetry_Int_Tables_number       1
_symmetry_cell_setting            triclinic
loop_
_symmetry_equiv_pos_as_xyz
  x,y,z
_cell_length_a                    11.8668
_cell_length_b                    16.1624
_cell_length_c                    11.8104
_cell_angle_alpha                 118.4345
_cell_angle_beta                  62.5280
_cell_angle_gamma                 62.2303
loop_
_atom_site_label
_atom_site_type_symbol
_atom_site_fract_x
_atom_site_fract_y
_atom_site_fract_z
_atom_site_U_iso_or_equiv
_atom_site_adp_type
_atom_site_occupancy
Gd0    Gd    0.24023   0.72342   0.75830   0.00000  Uiso   1.00
Gd1    Gd    0.76131   0.27568   0.24146   0.00000  Uiso   1.00
O2     O     0.62209   0.22364   0.21106   0.00000  Uiso   1.00
O3     O     0.79032   1.02964   1.14596   0.00000  Uiso   1.00
O4     O     1.21630   0.77045   0.61245   0.00000  Uiso   1.00
O5     O     0.14876  -0.03287   0.78675   0.00000  Uiso   1.00
O6     O     0.23999   0.64283   0.86551   0.00000  Uiso   1.00
O7     O     1.13692   0.63978   0.75565   0.00000  Uiso   1.00
O8     O     0.37940   0.77550   0.78878   0.00000  Uiso   1.00
C9     C     0.16436   0.61606   0.83489   0.00000  Uiso   1.00
O10    O     0.21126  -0.03058  -0.14623   0.00000  Uiso   1.00
O11    O    -0.14722   1.03199   0.21303   0.00000  Uiso   1.00
C12    C     1.16402  -0.11718   0.66315   0.00000  Uiso   1.00
O13    O     0.78528   0.22865   0.38728   0.00000  Uiso   1.00
O14    O     0.76135   0.35641   1.13443   0.00000  Uiso   1.00
O15    O    -0.13581   0.35962   0.24453   0.00000  Uiso   1.00
C16    C     0.67049   0.11207   0.15909   0.00000  Uiso   1.00
C17    C     0.83654   0.38350   0.16549   0.00000  Uiso   1.00
C18    C    -0.16251   1.11633   0.33666   0.00000  Uiso   1.00
C19    C     0.33091   0.88711   0.84083   0.00000  Uiso   1.00
C20    C     0.10674   0.56711   0.89299   0.00000  Uiso   1.00
C21    C     1.03380   0.50006   0.03392   0.00000  Uiso   1.00
C22    C    -0.03446   0.50071   0.96806   0.00000  Uiso   1.00
S23    S     1.00736   0.45676   0.14089   0.00000  Uiso   1.00
S24    S    -0.14153   0.45759   0.99574   0.00000  Uiso   1.00
S25    S     1.14208   0.54223   0.00501   0.00000  Uiso   1.00
S26    S    -0.00839   0.54429   0.86147   0.00000  Uiso   1.00
C27    C    -0.10646   0.43292   0.10803   0.00000  Uiso   1.00
C28    C     0.41077   0.92104   0.88657   0.00000  Uiso   1.00
C29    C     0.53511   0.95066  -0.00255   0.00000  Uiso   1.00
C30    C     0.46640   0.04846   1.00236   0.00000  Uiso   1.00
S31    S     0.62429   0.94784   0.07522   0.00000  Uiso   1.00
S32    S     0.47413   0.16194   1.08550   0.00000  Uiso   1.00
S33    S     0.52734   0.83722  -0.08563   0.00000  Uiso   1.00
S34    S     0.37691   0.05149   0.92491   0.00000  Uiso   1.00
C35    C     0.59045   0.07827   0.11354   0.00000  Uiso   1.00
C36    C    -0.11607   1.08184   0.41550   0.00000  Uiso   1.00
C37    C     0.99401  -0.04363   0.47339   0.00000  Uiso   1.00
C38    C     0.00732   1.04291   0.52662   0.00000  Uiso   1.00
S39    S     1.06868  -0.15310   0.48633   0.00000  Uiso   1.00
S40    S     0.09761   1.03674   0.60325   0.00000  Uiso   1.00
S41    S     0.90405  -0.03769   0.39641   0.00000  Uiso   1.00
S42    S    -0.06753   1.15249   0.51384   0.00000  Uiso   1.00
C43    C     1.11743  -0.08259   0.58446   0.00000  Uiso   1.00
loop_
_geom_bond_atom_site_label_1
_geom_bond_atom_site_label_2
_geom_bond_distance
_geom_bond_site_symmetry_2
_ccdc_geom_bond_type
Gd0    O6      2.207   .     S
Gd0    O8      2.263   .     S
Gd0    O3      2.282   1_455 S
Gd0    O4      2.263   1_455 S
Gd0    O7      2.207   1_455 S
Gd0    O11     2.280   1_556 S
Gd1    O2      2.263   .     S
Gd1    O13     2.263   .     S
Gd1    O5      2.280   1_654 S
Gd1    O10     2.282   1_655 S
Gd1    O14     2.207   1_554 S
Gd1    O15     2.207   1_655 S
O2     C16     1.270   .     A
O3     Gd0     2.282   1_655 S
O3     C16     1.287   1_566 A
O4     Gd0     2.263   1_655 S
O4     C12     1.270   1_565 A
O5     Gd1     2.280   1_456 S
O5     C12     1.285   1_455 A
O6     C9      1.279   .     A
O7     Gd0     2.207   1_655 S
O7     C9      1.279   1_655 A
O8     C19     1.270   .     A
C9     C20     1.467   .     S
C9     O7      1.279   1_455 A
O10    Gd1     2.282   1_455 S
O10    C19     1.287   1_544 A
O11    C18     1.285   .     A
O11    Gd0     2.280   1_554 S
C12    C43     1.471   .     S
C12    O4      1.270   1_545 A
C12    O5      1.285   1_655 A
O13    C18     1.270   1_645 A
O14    Gd1     2.207   1_556 S
O14    C17     1.279   1_556 A
O15    Gd1     2.207   1_455 S
O15    C17     1.279   1_455 A
C16    C35     1.471   .     S
C16    O3      1.287   1_544 A
C17    O14     1.279   1_554 A
C17    O15     1.279   1_655 A
C17    C27     1.467   1_655 S
C18    C36     1.471   .     S
C18    O13     1.270   1_465 A
C19    C28     1.471   .     S
C19    O10     1.287   1_566 A
C20    S26     1.717   .     A
C20    S25     1.717   1_456 A
C21    S23     1.693   .     A
C21    S25     1.693   .     A
C21    C22     1.357   1_654 A
C22    S24     1.693   .     A
C22    S26     1.693   .     A
C22    C21     1.357   1_456 A
S23    C27     1.717   1_655 A
S24    C27     1.717   1_556 A
S25    C20     1.717   1_654 A
C27    S23     1.717   1_455 A
C27    S24     1.717   1_554 A
C27    C17     1.467   1_455 S
C28    S33     1.718   1_556 A
C28    S34     1.716   1_565 A
C29    S31     1.690   .     A
C29    S33     1.691   .     A
C29    C30     1.355   1_564 A
C30    S32     1.691   .     A
C30    S34     1.690   .     A
C30    C29     1.355   1_546 A
S31    C35     1.716   1_565 A
S32    C35     1.718   1_556 A
S33    C28     1.718   1_554 A
S34    C28     1.716   1_545 A
C35    S31     1.716   1_545 A
C35    S32     1.718   1_554 A
C36    S42     1.718   .     A
C36    S41     1.716   1_465 A
C37    S39     1.691   .     A
C37    S41     1.691   .     A
C37    C38     1.355   1_645 A
C38    S40     1.691   .     A
C38    S42     1.691   .     A
C38    C37     1.355   1_465 A
S39    C43     1.718   .     A
S40    C43     1.716   1_465 A
S41    C36     1.716   1_645 A
C43    S40     1.716   1_645 A
