data_pcu+N144+E8
_audit_creation_date              2023-11-17
_audit_creation_method            'Materials Studio'
_symmetry_space_group_name_H-M    'P1'
_symmetry_Int_Tables_number       1
_symmetry_cell_setting            triclinic
loop_
_symmetry_equiv_pos_as_xyz
  x,y,z
_cell_length_a                    15.3599
_cell_length_b                    13.4123
_cell_length_c                    13.4034
_cell_angle_alpha                 89.5386
_cell_angle_beta                  84.8863
_cell_angle_gamma                 105.7533
loop_
_atom_site_label
_atom_site_type_symbol
_atom_site_fract_x
_atom_site_fract_y
_atom_site_fract_z
_atom_site_U_iso_or_equiv
_atom_site_adp_type
_atom_site_occupancy
C0     C     0.27214   0.06386   0.01068   0.00000  Uiso   1.00
Er1    Er    0.91539   0.95633   1.01054   0.00000  Uiso   1.00
Er2    Er    0.06799   0.98865  -0.02168   0.00000  Uiso   1.00
C3     C     0.00957   0.97631   0.20119   0.00000  Uiso   1.00
O4     O     0.08433   0.15440  -0.02495   0.00000  Uiso   1.00
C5     C    -0.02278   0.75909  -0.00243   0.00000  Uiso   1.00
C6     C     0.97323   0.96867   0.78779   0.00000  Uiso   1.00
C7     C     0.76415   0.01338   1.03712   0.00000  Uiso   1.00
O8     O     0.25097   0.13071   0.06036   0.00000  Uiso   1.00
O9     O     0.21577   0.01061   0.94159   0.00000  Uiso   1.00
O10    O     0.05157   0.98560   0.81902   0.00000  Uiso   1.00
O11    O     0.90322   0.95338   0.85035   0.00000  Uiso   1.00
O12    O     0.05465   0.82353  -0.01919   0.00000  Uiso   1.00
O13    O     0.90729   0.79191   1.01270   0.00000  Uiso   1.00
C14    C     1.01505   0.18873  -0.01049   0.00000  Uiso   1.00
O15    O     0.93588   0.12522   0.00600   0.00000  Uiso   1.00
O16    O     0.07969   0.99038   0.13870   0.00000  Uiso   1.00
O17    O     0.93117   0.96041   0.16997   0.00000  Uiso   1.00
O18    O     0.84266   0.07732   1.02459   0.00000  Uiso   1.00
O19    O     0.76790  -0.07926   0.03795   0.00000  Uiso   1.00
C20    C     0.03934   0.51043  -0.01555   0.00000  Uiso   1.00
C21    C     0.95414   0.43769   0.00240   0.00000  Uiso   1.00
N22    N     0.87826   0.47085   0.01846   0.00000  Uiso   1.00
C23    C     0.88361   0.57371   0.01738   0.00000  Uiso   1.00
C24    C    -0.03116   0.64704  -0.00063   0.00000  Uiso   1.00
N25    N     0.04479   0.61319  -0.01668   0.00000  Uiso   1.00
N26    N     0.11519   0.47707  -0.03155   0.00000  Uiso   1.00
C27    C     0.10974   0.37409  -0.03043   0.00000  Uiso   1.00
C28    C     0.02444   0.30095  -0.01246   0.00000  Uiso   1.00
N29    N     0.94866   0.33503   0.00352   0.00000  Uiso   1.00
H30    H     0.82190   0.59782   0.03045   0.00000  Uiso   1.00
H31    H     0.17130   0.34973  -0.04341   0.00000  Uiso   1.00
C32    C     0.51506   0.09104   1.04468   0.00000  Uiso   1.00
C33    C     0.51980  -0.01093   1.02954   0.00000  Uiso   1.00
N34    N     0.44429   0.91454   0.01064   0.00000  Uiso   1.00
C35    C     0.36390  -0.06278   0.00547   0.00000  Uiso   1.00
C36    C     0.35836   0.03887   1.02085   0.00000  Uiso   1.00
N37    N     0.43421   0.11371   1.04084   0.00000  Uiso   1.00
N38    N     0.59210   0.16615   1.05929   0.00000  Uiso   1.00
C39    C     0.67362   0.14385   1.05891   0.00000  Uiso   1.00
C40    C     0.67801   0.04160   1.04415   0.00000  Uiso   1.00
N41    N     0.60063  -0.03315   1.03028   0.00000  Uiso   1.00
H42    H     0.30476   0.87630  -0.01042   0.00000  Uiso   1.00
H43    H     0.73425   0.20521   1.06928   0.00000  Uiso   1.00
C44    C     0.94874   0.96388   0.47601   0.00000  Uiso   1.00
C45    C     0.03410   0.98155   0.51296   0.00000  Uiso   1.00
N46    N     0.10980   0.99725   0.44780   0.00000  Uiso   1.00
C47    C     0.10408   0.99607   0.34711   0.00000  Uiso   1.00
C48    C     0.01864   0.97832   0.30968   0.00000  Uiso   1.00
N49    N     0.94294   0.96266   0.37553   0.00000  Uiso   1.00
N50    N     0.87305   0.94816   0.54117   0.00000  Uiso   1.00
C51    C     0.87875   0.94927   0.64187   0.00000  Uiso   1.00
C52    C     0.96418   0.96691   0.67929   0.00000  Uiso   1.00
N53    N     0.03988   0.98268   0.61344   0.00000  Uiso   1.00
H54    H     0.16563   1.00883   0.29697   0.00000  Uiso   1.00
H55    H     0.81723   0.93653   0.69202   0.00000  Uiso   1.00
loop_
_geom_bond_atom_site_label_1
_geom_bond_atom_site_label_2
_geom_bond_distance
_geom_bond_site_symmetry_2
_ccdc_geom_bond_type
C0     O8      1.218   .     D
C0     O9      1.391   1_554 S
C0     C36     1.469   1_554 S
Er1    O11     2.172   .     S
Er1    O13     2.175   .     S
Er1    O15     2.200   1_566 S
Er1    O17     2.171   1_556 S
Er1    O18     2.207   1_565 S
Er1    O19     2.181   1_566 S
Er2    O12     2.168   .     S
Er2    O16     2.173   .     S
Er2    O4      2.168   1_565 S
Er2    O9      2.217   1_564 S
Er2    O10     2.172   1_554 S
C3     O16     1.274   .     A
C3     C48     1.473   .     S
C3     O17     1.274   1_455 A
O4     Er2     2.168   1_545 S
O4     C14     1.270   1_455 A
C5     O12     1.266   .     A
C5     C24     1.473   .     S
C5     O13     1.268   1_454 A
C6     O11     1.272   .     A
C6     C52     1.473   .     S
C6     O10     1.272   1_655 A
C7     O18     1.272   .     A
C7     C40     1.467   .     S
C7     O19     1.260   1_556 A
O9     C0      1.391   1_556 S
O9     Er2     2.217   1_546 S
O10    Er2     2.172   1_556 S
O10    C6      1.272   1_455 A
O13    C5      1.268   1_656 A
C14    O15     1.281   .     A
C14    O4      1.270   1_655 A
C14    C28     1.472   1_655 S
O15    Er1     2.200   1_544 S
O17    Er1     2.171   1_554 S
O17    C3      1.274   1_655 A
O18    Er1     2.207   1_545 S
O19    Er1     2.181   1_544 S
O19    C7      1.260   1_554 A
C20    N25     1.358   .     A
C20    N26     1.358   .     A
C20    C21     1.403   1_455 A
C21    N22     1.357   .     A
C21    N29     1.356   .     A
C21    C20     1.403   1_655 A
N22    C23     1.360   .     A
C23    H30     1.082   .     S
C23    C24     1.407   1_655 A
C24    N25     1.363   .     A
C24    C23     1.407   1_455 A
N26    C27     1.361   .     A
C27    C28     1.407   .     A
C27    H31     1.082   .     S
C28    N29     1.362   1_455 A
C28    C14     1.472   1_455 S
N29    C28     1.362   1_655 A
C32    C33     1.405   .     A
C32    N37     1.361   .     A
C32    N38     1.360   .     A
C33    N41     1.354   .     A
C33    N34     1.355   1_546 A
N34    C33     1.355   1_564 A
N34    C35     1.357   1_565 A
C35    N34     1.357   1_545 A
C35    C36     1.405   1_554 A
C35    H42     1.083   1_545 S
C36    N37     1.364   .     A
C36    C35     1.405   1_556 A
C36    C0      1.469   1_556 S
N38    C39     1.364   .     A
C39    C40     1.406   .     A
C39    H43     1.083   .     S
C40    N41     1.359   .     A
H42    C35     1.083   1_565 S
C44    N49     1.357   .     A
C44    N50     1.357   .     A
C44    C45     1.403   1_655 A
C45    N46     1.357   .     A
C45    N53     1.357   .     A
C45    C44     1.403   1_455 A
N46    C47     1.360   .     A
C47    C48     1.407   .     A
C47    H54     1.082   .     S
C48    N49     1.362   1_455 A
N49    C48     1.362   1_655 A
N50    C51     1.360   .     A
C51    C52     1.407   .     A
C51    H55     1.082   .     S
C52    N53     1.362   1_655 A
N53    C52     1.362   1_455 A
