data_pcu+N248+E9
_audit_creation_date              2023-11-17
_audit_creation_method            'Materials Studio'
_symmetry_space_group_name_H-M    'P1'
_symmetry_Int_Tables_number       1
_symmetry_cell_setting            triclinic
loop_
_symmetry_equiv_pos_as_xyz
  x,y,z
_cell_length_a                    19.5302
_cell_length_b                    18.8808
_cell_length_c                    21.9151
_cell_angle_alpha                 89.7063
_cell_angle_beta                  89.8161
_cell_angle_gamma                 89.7465
loop_
_atom_site_label
_atom_site_type_symbol
_atom_site_fract_x
_atom_site_fract_y
_atom_site_fract_z
_atom_site_U_iso_or_equiv
_atom_site_adp_type
_atom_site_occupancy
O0     O     0.88372   1.00448   0.94923   0.00000  Uiso   1.00
Yb1    Yb    0.99338   0.00428   0.06653   0.00000  Uiso   1.00
C2     C     0.99319   1.00369   0.18222   0.00000  Uiso   1.00
Yb3    Yb   -0.00630   1.00355   0.93697   0.00000  Uiso   1.00
O4     O     0.88343   0.00359   0.05446   0.00000  Uiso   1.00
C5     C     0.99325   0.13752   0.95431   0.00000  Uiso   1.00
C6     C     0.85235   0.00406   0.00186   0.00000  Uiso   1.00
O7     O     0.99371   0.06162   0.85230   0.00000  Uiso   1.00
C8     C    -0.00609   0.00414   0.82128   0.00000  Uiso   1.00
O9     O     0.99367   0.89680   0.10033   0.00000  Uiso   1.00
O10    O    -0.00622   0.91928   1.00137   0.00000  Uiso   1.00
O11    O     0.10336   0.00335   0.05427   0.00000  Uiso   1.00
O12    O    -0.00595   0.94709   0.85283   0.00000  Uiso   1.00
O13    O     0.10365   1.00423   0.94904   0.00000  Uiso   1.00
C14    C    -0.00618   0.87032   0.04920   0.00000  Uiso   1.00
C15    C     0.13473   1.00377   1.00164   0.00000  Uiso   1.00
O16    O    -0.00663   0.94621   0.15120   0.00000  Uiso   1.00
O17    O     0.99304   0.06074   0.15067   0.00000  Uiso   1.00
O18    O    -0.00658   0.11104   0.90318   0.00000  Uiso   1.00
O19    O     0.99329   0.08855   0.00213   0.00000  Uiso   1.00
C20    C     0.99374   0.65178   0.02097   0.00000  Uiso   1.00
N21    N     0.99306   0.69748   0.97292   0.00000  Uiso   1.00
N22    N     0.99315   0.76721   0.98200   0.00000  Uiso   1.00
C23    C     0.99391   0.79370   0.03942   0.00000  Uiso   1.00
N24    N    -0.00539   0.74810   0.08750   0.00000  Uiso   1.00
N25    N     0.99454   0.67837   0.07842   0.00000  Uiso   1.00
C26    C     0.99355   0.57492   0.01098   0.00000  Uiso   1.00
N27    N     0.99466   0.52924   0.05901   0.00000  Uiso   1.00
N28    N     0.99442   0.45951   0.04995   0.00000  Uiso   1.00
C29    C     0.99305   0.43291  -0.00747   0.00000  Uiso   1.00
N30    N     0.99193   0.47858   0.94449   0.00000  Uiso   1.00
N31    N     0.99217   0.54832   0.95355   0.00000  Uiso   1.00
C32    C     0.99296   0.35605  -0.01747   0.00000  Uiso   1.00
N33    N     0.99228   0.32946   0.92508   0.00000  Uiso   1.00
N34    N     0.99237   0.25973   0.91601   0.00000  Uiso   1.00
C35    C     0.99310   0.21414  -0.03592   0.00000  Uiso   1.00
N36    N    -0.00626   0.24063   0.02151   0.00000  Uiso   1.00
N37    N     0.99369   0.31035   0.03058   0.00000  Uiso   1.00
C38    C     0.34887   0.00380   0.00167   0.00000  Uiso   1.00
N39    N     0.31330   0.00305   0.05500   0.00000  Uiso   1.00
N40    N     0.24508   1.00302   0.05498   0.00000  Uiso   1.00
C41    C     0.20992   0.00375   0.00163   0.00000  Uiso   1.00
N42    N     0.24549   0.00449   0.94830   0.00000  Uiso   1.00
N43    N     0.31372   0.00452   0.94832   0.00000  Uiso   1.00
C44    C     0.42407   0.00385   0.00171   0.00000  Uiso   1.00
N45    N     0.45965   0.00484   0.94839   0.00000  Uiso   1.00
N46    N     0.52788   0.00489   0.94843   0.00000  Uiso   1.00
C47    C     0.56301   0.00395   0.00179   0.00000  Uiso   1.00
N48    N     0.52742   0.00297   0.05511   0.00000  Uiso   1.00
N49    N     0.45920   0.00293   0.05507   0.00000  Uiso   1.00
C50    C     0.63821   0.00401   0.00183   0.00000  Uiso   1.00
N51    N     0.67336   0.00322   0.05518   0.00000  Uiso   1.00
N52    N     0.74159   1.00326   0.05520   0.00000  Uiso   1.00
C53    C     0.77715   0.00408   0.00187   0.00000  Uiso   1.00
N54    N     0.74200   0.00488   0.94852   0.00000  Uiso   1.00
N55    N     0.67378   0.00485   0.94850   0.00000  Uiso   1.00
C56    C     0.99336   0.00386   0.37282   0.00000  Uiso   1.00
N57    N     0.99360   0.94191   0.34162   0.00000  Uiso   1.00
N58    N     0.99352   0.94187   0.28082   0.00000  Uiso   1.00
C59    C     0.99319   0.00377   0.24906   0.00000  Uiso   1.00
N60    N     0.99294   0.06572   0.28020   0.00000  Uiso   1.00
N61    N     0.99302   0.06576   0.34100   0.00000  Uiso   1.00
C62    C     0.99349   0.00389   0.43984   0.00000  Uiso   1.00
N63    N     0.99315   0.06583   0.47105   0.00000  Uiso   1.00
N64    N     0.99326   0.06585   0.53185   0.00000  Uiso   1.00
C65    C     0.99374   0.00395   0.56366   0.00000  Uiso   1.00
N66    N     0.99408   0.94201   0.53244   0.00000  Uiso   1.00
N67    N     0.99396   0.94199   0.47165   0.00000  Uiso   1.00
C68    C     0.99383   0.00399   0.63068   0.00000  Uiso   1.00
N69    N     0.99424   0.94208   0.66249   0.00000  Uiso   1.00
N70    N     0.99429   0.94211   0.72330   0.00000  Uiso   1.00
C71    C     0.99395   0.00406   0.75444   0.00000  Uiso   1.00
N72    N     0.99355   0.06597   0.72268   0.00000  Uiso   1.00
N73    N     0.99349   0.06593   0.66188   0.00000  Uiso   1.00
loop_
_geom_bond_atom_site_label_1
_geom_bond_atom_site_label_2
_geom_bond_distance
_geom_bond_site_symmetry_2
_ccdc_geom_bond_type
O0     C6      1.304   1_566 A
O0     Yb3     2.164   1_655 S
Yb1    O4      2.165   .     S
Yb1    O17     2.135   .     S
Yb1    O19     2.122   .     S
Yb1    Yb3     2.840   1_644 S
Yb1    O9      2.157   1_545 S
Yb1    O10     2.154   1_644 S
Yb1    O11     2.164   1_655 S
Yb1    O16     2.150   1_645 S
C2     O16     1.283   1_655 A
C2     O17     1.277   1_565 A
C2     C59     1.465   1_565 S
Yb3    O10     2.122   .     S
Yb3    O12     2.135   .     S
Yb3    O13     2.165   .     S
Yb3    O0      2.164   1_455 S
Yb3    Yb1     2.840   1_466 S
Yb3    O7      2.150   1_465 S
Yb3    O18     2.157   1_565 S
Yb3    O19     2.153   1_466 S
O4     C6      1.304   .     A
C5     O18     1.229   1_655 D
C5     O19     1.394   1_556 S
C5     C35     1.463   1_556 S
C6     C53     1.468   .     S
C6     O0      1.304   1_544 A
O7     Yb3     2.150   1_645 S
O7     C8      1.283   1_655 A
C8     O7      1.283   1_455 A
C8     O12     1.277   1_545 A
C8     C71     1.465   1_455 S
O9     Yb1     2.157   1_565 S
O9     C14     1.229   1_655 D
O10    Yb1     2.154   1_466 S
O10    C14     1.394   1_556 S
O11    Yb1     2.164   1_455 S
O11    C15     1.304   1_544 A
O12    C8      1.277   1_565 A
O13    C15     1.304   .     A
C14    O9      1.229   1_455 D
C14    O10     1.394   1_554 S
C14    C23     1.463   1_455 S
C15    O11     1.304   1_566 A
C15    C41     1.468   1_566 S
O16    Yb1     2.150   1_465 S
O16    C2      1.283   1_455 A
O17    C2      1.277   1_545 A
O18    Yb3     2.157   1_545 S
O18    C5      1.229   1_455 D
O19    Yb3     2.153   1_644 S
O19    C5      1.394   1_554 S
C20    N25     1.358   .     A
C20    C26     1.469   .     S
C20    N21     1.358   1_554 A
N21    N22     1.332   .     A
N21    C20     1.358   1_556 A
N22    C23     1.357   1_556 A
C23    N22     1.357   1_554 A
C23    N24     1.357   1_655 A
C23    C14     1.463   1_655 S
N24    C23     1.357   1_455 A
N24    N25     1.332   1_455 A
N25    N24     1.332   1_655 A
C26    N27     1.358   .     A
C26    N31     1.358   1_554 A
N27    N28     1.333   .     A
N28    C29     1.358   .     A
C29    C32     1.469   .     S
C29    N30     1.358   1_554 A
N30    N31     1.333   .     A
N30    C29     1.358   1_556 A
N31    C26     1.358   1_556 A
C32    N37     1.358   .     A
C32    N33     1.358   1_554 A
N33    N34     1.332   .     A
N33    C32     1.358   1_556 A
N34    C35     1.357   1_556 A
C35    N34     1.357   1_554 A
C35    N36     1.357   1_655 A
C35    C5      1.463   1_554 S
N36    C35     1.357   1_455 A
N36    N37     1.332   1_455 A
N37    N36     1.332   1_655 A
C38    N39     1.358   .     A
C38    C44     1.469   .     S
C38    N43     1.358   1_554 A
N39    N40     1.332   1_545 A
N40    N39     1.332   1_565 A
N40    C41     1.358   1_565 A
C41    N40     1.358   1_545 A
C41    N42     1.358   1_554 A
C41    C15     1.468   1_544 S
N42    N43     1.332   .     A
N42    C41     1.358   1_556 A
N43    C38     1.358   1_556 A
C44    N49     1.358   .     A
C44    N45     1.358   1_554 A
N45    N46     1.332   .     A
N45    C44     1.358   1_556 A
N46    C47     1.358   1_556 A
C47    N48     1.358   .     A
C47    C50     1.469   .     S
C47    N46     1.358   1_554 A
N48    N49     1.332   .     A
C50    N51     1.358   .     A
C50    N55     1.358   1_554 A
N51    N52     1.332   1_545 A
N52    N51     1.332   1_565 A
N52    C53     1.358   1_565 A
C53    N52     1.358   1_545 A
C53    N54     1.358   1_554 A
N54    N55     1.332   .     A
N54    C53     1.358   1_556 A
N55    C50     1.358   1_556 A
C56    N61     1.358   .     A
C56    C62     1.469   .     S
C56    N57     1.358   1_545 A
N57    N58     1.332   .     A
N57    C56     1.358   1_565 A
N58    C59     1.357   1_565 A
C59    N60     1.357   .     A
C59    N58     1.357   1_545 A
C59    C2      1.465   1_545 S
N60    N61     1.332   .     A
C62    N63     1.358   .     A
C62    N67     1.358   1_545 A
N63    N64     1.332   .     A
N64    C65     1.358   .     A
C65    C68     1.469   .     S
C65    N66     1.358   1_545 A
N66    N67     1.332   .     A
N66    C65     1.358   1_565 A
N67    C62     1.358   1_565 A
C68    N73     1.358   .     A
C68    N69     1.358   1_545 A
N69    N70     1.332   .     A
N69    C68     1.358   1_565 A
N70    C71     1.357   1_565 A
C71    N72     1.357   .     A
C71    N70     1.357   1_545 A
C71    C8      1.465   1_655 S
N72    N73     1.332   .     A
