data_pcu+N139+E191
_audit_creation_date              2023-11-17
_audit_creation_method            'Materials Studio'
_symmetry_space_group_name_H-M    'P1'
_symmetry_Int_Tables_number       1
_symmetry_cell_setting            triclinic
loop_
_symmetry_equiv_pos_as_xyz
  x,y,z
_cell_length_a                    19.4147
_cell_length_b                    15.4847
_cell_length_c                    21.4419
_cell_angle_alpha                 96.9151
_cell_angle_beta                  90.8655
_cell_angle_gamma                 22.7717
loop_
_atom_site_label
_atom_site_type_symbol
_atom_site_fract_x
_atom_site_fract_y
_atom_site_fract_z
_atom_site_U_iso_or_equiv
_atom_site_adp_type
_atom_site_occupancy
C0     C     0.06328  -0.02178   0.21828   0.00000  Uiso   1.00
Sm1    Sm    0.90829   0.03481   0.90429   0.00000  Uiso   1.00
Sm2    Sm    0.09103   0.96663   0.09603   0.00000  Uiso   1.00
C3     C     0.88031   0.24945  -0.01442   0.00000  Uiso   1.00
C4     C     0.22983   0.95623   0.06533   0.00000  Uiso   1.00
O5     O     0.07388   0.87181   0.80792   0.00000  Uiso   1.00
O6     O     0.78575   0.17811   0.81995   0.00000  Uiso   1.00
O7     O     0.15124   0.75255   0.06674   0.00000  Uiso   1.00
O8     O     1.09946   0.82146   0.97194   0.00000  Uiso   1.00
O9     O     0.70316   0.19440  -0.03252   0.00000  Uiso   1.00
O10    O     0.90952   0.88944   0.88736   0.00000  Uiso   1.00
O11    O     0.92628   0.12880   0.19254   0.00000  Uiso   1.00
O12    O     0.21460   0.82211   0.18013   0.00000  Uiso   1.00
O13    O     0.84747   0.24955   0.93373   0.00000  Uiso   1.00
O14    O    -0.10082   0.18080   0.02858   0.00000  Uiso   1.00
O15    O     0.29598   0.80700   1.03253   0.00000  Uiso   1.00
O16    O     0.09055   0.11113   0.11283   0.00000  Uiso   1.00
C17    C     0.93734   1.02173   0.78196   0.00000  Uiso   1.00
C18    C     0.11832   0.75278   1.01490   0.00000  Uiso   1.00
C19    C     0.76990   0.04455   0.93470   0.00000  Uiso   1.00
Ni20   Ni   -0.00072   0.50118   0.00035   0.00000  Uiso   1.00
C21    C     1.09117   0.68983   0.00971   0.00000  Uiso   1.00
C22    C     0.98789   0.77319   0.06376   0.00000  Uiso   1.00
C23    C     0.96586   0.70899   0.06002   0.00000  Uiso   1.00
C24    C     0.15187   0.47444   0.95212   0.00000  Uiso   1.00
C25    C     0.17744   0.53462   0.95377   0.00000  Uiso   1.00
H26    H     0.73692   0.53907   0.08868   0.00000  Uiso   1.00
H27    H     0.07424   0.11482   0.89216   0.00000  Uiso   1.00
H28    H     0.11421   0.22741   0.89947   0.00000  Uiso   1.00
H29    H     0.78566   0.64168   0.09211   0.00000  Uiso   1.00
N30    N    -0.04661   0.43731   0.99614   0.00000  Uiso   1.00
N31    N     1.04527   0.56491   0.00454   0.00000  Uiso   1.00
H32    H     0.92249   0.88987   0.10812   0.00000  Uiso   1.00
H33    H     0.88260   0.77717   0.10094   0.00000  Uiso   1.00
H34    H     0.21456   0.35855   0.90880   0.00000  Uiso   1.00
H35    H     0.26291   0.46161   0.91207   0.00000  Uiso   1.00
C36    C    -0.09284   0.31278   0.99080   0.00000  Uiso   1.00
C37    C     0.00950   0.23064   0.93665   0.00000  Uiso   1.00
C38    C     0.03166   0.29469   0.94047   0.00000  Uiso   1.00
C39    C     0.84756   0.52678   0.04865   0.00000  Uiso   1.00
C40    C     0.82175   0.46688   0.04690   0.00000  Uiso   1.00
Ni41   Ni    0.50036  -0.00029  -0.00008   0.00000  Uiso   1.00
C42    C     0.30308  -0.04327   0.04954   0.00000  Uiso   1.00
C43    C     0.24820   0.09465   0.09467   0.00000  Uiso   1.00
C44    C     0.30975   0.10467   0.07832   0.00000  Uiso   1.00
C45    C     0.47701   0.84744   0.97417   0.00000  Uiso   1.00
C46    C     0.42009   0.83042   0.98877   0.00000  Uiso   1.00
H47    H     0.53435   0.27862   0.04701   0.00000  Uiso   1.00
H48    H     0.84552   0.80168   0.85836   0.00000  Uiso   1.00
H49    H     0.73571   0.78527   0.88745   0.00000  Uiso   1.00
H50    H     0.43190   0.25039   0.07221   0.00000  Uiso   1.00
N51    N     0.57904   1.01710   0.98090   0.00000  Uiso   1.00
N52    N     0.42163  -0.01759   0.01897   0.00000  Uiso   1.00
H53    H     0.15733   0.19533   0.14197   0.00000  Uiso   1.00
H54    H     0.26776   0.21092   0.11282   0.00000  Uiso   1.00
H55    H     0.56639   0.75189   0.92731   0.00000  Uiso   1.00
H56    H     0.46332   0.72448   0.95256   0.00000  Uiso   1.00
C57    C     0.69697   1.04360   0.95039   0.00000  Uiso   1.00
C58    C     0.75353   0.90366   0.90546   0.00000  Uiso   1.00
C59    C     0.69233   0.89319   0.92177   0.00000  Uiso   1.00
C60    C     0.52209   0.15393   0.02550   0.00000  Uiso   1.00
C61    C     0.57874   0.17130   0.01093   0.00000  Uiso   1.00
Ni62   Ni    0.00160  -0.00195   0.49996   0.00000  Uiso   1.00
C63    C     0.04814   0.98360   0.28662   0.00000  Uiso   1.00
C64    C     0.20144   0.81670   0.31293   0.00000  Uiso   1.00
C65    C     0.18423   0.82445   0.37765   0.00000  Uiso   1.00
C66    C     0.86965   0.15583   0.39067   0.00000  Uiso   1.00
C67    C     0.88057   0.15481   0.32624   0.00000  Uiso   1.00
H68    H     0.24202   0.71270   0.69281   0.00000  Uiso   1.00
H69    H     0.66877   0.31622   0.71590   0.00000  Uiso   1.00
H70    H     0.70138   0.29963   0.60134   0.00000  Uiso   1.00
H71    H     0.26174   0.70973   0.57875   0.00000  Uiso   1.00
N72    N     0.98270   0.00424   0.58505   0.00000  Uiso   1.00
N73    N     0.02028   0.99215   0.41489   0.00000  Uiso   1.00
H74    H     0.33307   0.68179   0.28386   0.00000  Uiso   1.00
H75    H     0.30170   0.69652   0.39829   0.00000  Uiso   1.00
H76    H     0.74099   0.28719   0.42152   0.00000  Uiso   1.00
H77    H     0.75941   0.28621   0.30765   0.00000  Uiso   1.00
C78    C     0.95335   0.01509   0.71352   0.00000  Uiso   1.00
C79    C     0.80060   0.18106   0.68695   0.00000  Uiso   1.00
C80    C     0.81851   0.17223   0.62216   0.00000  Uiso   1.00
C81    C     0.13289   0.84131   0.60948   0.00000  Uiso   1.00
C82    C     0.12121   0.84351   0.67403   0.00000  Uiso   1.00
loop_
_geom_bond_atom_site_label_1
_geom_bond_atom_site_label_2
_geom_bond_distance
_geom_bond_site_symmetry_2
_ccdc_geom_bond_type
C0     O11     1.282   1_455 A
C0     O12     1.282   1_545 A
C0     C63     1.476   1_545 S
Sm1    O6      2.226   .     S
Sm1    O13     2.264   .     S
Sm1    O5      2.226   1_645 S
Sm1    O8      2.275   1_545 S
Sm1    O9      2.239   1_556 S
Sm1    O10     2.215   1_545 S
Sm2    O7      2.264   .     S
Sm2    O12     2.226   .     S
Sm2    O11     2.226   1_465 S
Sm2    O14     2.275   1_565 S
Sm2    O15     2.239   1_554 S
Sm2    O16     2.214   1_565 S
C3     O13     1.273   1_554 A
C3     O14     1.274   1_655 A
C3     C36     1.470   1_654 S
C4     O15     1.283   1_554 A
C4     O16     1.279   1_565 A
C4     C42     1.474   1_565 S
O5     Sm1     2.226   1_465 S
O5     C17     1.282   1_455 A
O6     C17     1.282   1_545 A
O7     C18     1.272   1_554 A
O8     Sm1     2.275   1_565 S
O8     C18     1.273   1_655 A
O9     Sm1     2.239   1_554 S
O9     C19     1.283   1_554 A
O10    Sm1     2.215   1_565 S
O10    C19     1.279   1_565 A
O11    C0      1.282   1_655 A
O11    Sm2     2.226   1_645 S
O12    C0      1.282   1_565 A
O13    C3      1.273   1_556 A
O14    Sm2     2.275   1_545 S
O14    C3      1.274   1_455 A
O15    Sm2     2.239   1_556 S
O15    C4      1.283   1_556 A
O16    Sm2     2.214   1_545 S
O16    C4      1.279   1_545 A
C17    O5      1.282   1_655 A
C17    O6      1.282   1_565 A
C17    C78     1.476   1_565 S
C18    O7      1.272   1_556 A
C18    O8      1.273   1_455 A
C18    C21     1.470   1_456 S
C19    O9      1.283   1_556 A
C19    O10     1.279   1_545 A
C19    C57     1.474   1_545 S
Ni20   N30     1.839   1_554 S
Ni20   N31     1.839   1_455 S
C21    C22     1.403   .     A
C21    C25     1.401   1_654 A
C21    C18     1.470   1_654 S
C22    C23     1.393   .     A
C22    H32     1.083   .     S
C23    N31     1.357   .     A
C23    H33     1.082   .     S
C24    C25     1.400   .     A
C24    H34     1.082   .     S
C24    N31     1.361   1_456 A
C25    H35     1.083   .     S
C25    C21     1.401   1_456 A
H26    C40     1.083   .     S
H27    C37     1.083   .     S
H28    C38     1.082   .     S
H29    C39     1.081   .     S
N30    C38     1.357   .     A
N30    Ni20    1.839   1_556 S
N30    C39     1.361   1_456 A
N31    Ni20    1.839   1_655 S
N31    C24     1.361   1_654 A
C36    C37     1.403   .     A
C36    C40     1.401   1_456 A
C36    C3      1.470   1_456 S
C37    C38     1.393   .     A
C39    C40     1.400   .     A
C39    N30     1.361   1_654 A
C40    C36     1.401   1_654 A
Ni41   N52     1.837   .     S
Ni41   N51     1.837   1_544 S
C42    C43     1.404   .     A
C42    C46     1.402   1_544 A
C42    C4      1.474   1_545 S
C43    C44     1.394   .     A
C43    H53     1.083   .     S
C44    N52     1.357   .     A
C44    H54     1.082   .     S
C45    C46     1.399   .     A
C45    H55     1.082   .     S
C45    N52     1.360   1_566 A
C46    H56     1.083   .     S
C46    C42     1.402   1_566 A
H47    C61     1.083   .     S
H48    C58     1.083   .     S
H49    C59     1.082   .     S
H50    C60     1.082   .     S
N51    C59     1.357   .     A
N51    Ni41    1.837   1_566 S
N51    C60     1.360   1_566 A
N52    C45     1.360   1_544 A
C57    C58     1.404   .     A
C57    C61     1.402   1_566 A
C57    C19     1.474   1_565 S
C58    C59     1.394   .     A
C60    C61     1.399   .     A
C60    N51     1.360   1_544 A
C61    C57     1.402   1_544 A
Ni62   N72     1.840   1_455 S
Ni62   N73     1.840   1_545 S
C63    C64     1.404   .     A
C63    C67     1.404   1_465 A
C63    C0      1.476   1_565 S
C64    C65     1.397   .     A
C64    H74     1.083   .     S
C65    N73     1.359   .     A
C65    H75     1.082   .     S
C66    C67     1.397   .     A
C66    H76     1.082   .     S
C66    N73     1.359   1_645 A
C67    H77     1.083   .     S
C67    C63     1.404   1_645 A
H68    C82     1.083   .     S
H69    C79     1.083   .     S
H70    C80     1.082   .     S
H71    C81     1.082   .     S
N72    C80     1.359   .     A
N72    Ni62    1.840   1_655 S
N72    C81     1.359   1_645 A
N73    Ni62    1.840   1_565 S
N73    C66     1.359   1_465 A
C78    C79     1.404   .     A
C78    C82     1.404   1_645 A
C78    C17     1.476   1_545 S
C79    C80     1.397   .     A
C81    C82     1.397   .     A
C81    N72     1.359   1_465 A
C82    C78     1.404   1_465 A
