data_pcu+N248+E229
_audit_creation_date              2023-11-17
_audit_creation_method            'Materials Studio'
_symmetry_space_group_name_H-M    'P1'
_symmetry_Int_Tables_number       1
_symmetry_cell_setting            triclinic
loop_
_symmetry_equiv_pos_as_xyz
  x,y,z
_cell_length_a                    21.6787
_cell_length_b                    22.1796
_cell_length_c                    24.4575
_cell_angle_alpha                 66.7643
_cell_angle_beta                  70.6015
_cell_angle_gamma                 70.5743
loop_
_atom_site_label
_atom_site_type_symbol
_atom_site_fract_x
_atom_site_fract_y
_atom_site_fract_z
_atom_site_U_iso_or_equiv
_atom_site_adp_type
_atom_site_occupancy
O0     O     0.96287   1.01806   0.90504   0.00000  Uiso   1.00
Yb1    Yb    0.95709  -0.03252   0.05160   0.00000  Uiso   1.00
C2     C     0.92693   0.98739   0.15207   0.00000  Uiso   1.00
Yb3    Yb    0.04977   1.02000   0.93426   0.00000  Uiso   1.00
O4     O     0.89476  -0.02613  -0.00330   0.00000  Uiso   1.00
C5     C     0.97779   0.13076   0.94928   0.00000  Uiso   1.00
C6     C     0.90625   0.00079  -0.06194   0.00000  Uiso   1.00
O7     O     1.01885   0.01237   0.86370   0.00000  Uiso   1.00
C8     C     0.08066  -0.01013   0.83853   0.00000  Uiso   1.00
O9     O     0.98640   0.85832   0.07929   0.00000  Uiso   1.00
O10    O     0.03971   0.92240   0.99388   0.00000  Uiso   1.00
O11    O     0.04220  -0.02555   0.08054   0.00000  Uiso   1.00
O12    O     0.12531   0.98769   0.86318   0.00000  Uiso   1.00
O13    O     0.10993   1.01919   0.98842   0.00000  Uiso   1.00
C14    C     0.03302   0.85803   0.03326   0.00000  Uiso   1.00
C15    C     0.09307   1.00120   1.04707   0.00000  Uiso   1.00
O16    O    -0.01131   0.96803   0.12455   0.00000  Uiso   1.00
O17    O     0.88175  -0.00521   0.12539   0.00000  Uiso   1.00
O18    O     0.02343   0.12739   0.90300   0.00000  Uiso   1.00
O19    O     0.96590   0.06882  -0.00756   0.00000  Uiso   1.00
C20    C     0.09668   0.67674   0.03283   0.00000  Uiso   1.00
C21    C     0.15712   0.68105   0.98794   0.00000  Uiso   1.00
C22    C     0.17683   0.74237   0.95889   0.00000  Uiso   1.00
C23    C     0.13670   0.79973   0.97454   0.00000  Uiso   1.00
C24    C     0.07637   0.79617   1.01994   0.00000  Uiso   1.00
C25    C     0.05691   0.73433   0.04931   0.00000  Uiso   1.00
C26    C     0.07393   0.61168   0.06037   0.00000  Uiso   1.00
H27    H     0.18808   0.63733   0.97467   0.00000  Uiso   1.00
H28    H     0.22324   0.74513   0.92424   0.00000  Uiso   1.00
H29    H     0.15349   0.84636   0.95175   0.00000  Uiso   1.00
H30    H     1.00973   0.73182   0.08299   0.00000  Uiso   1.00
H31    H     0.11441   0.57050   0.07999   0.00000  Uiso   1.00
H32    H     0.02778   0.61483   0.09779   0.00000  Uiso   1.00
C33    C     0.93116   0.31217   0.94671   0.00000  Uiso   1.00
C34    C     0.96591   0.25278   0.93156   0.00000  Uiso   1.00
C35    C     0.96124   0.37271   0.92032   0.00000  Uiso   1.00
C36    C     0.99645   0.44642   0.94888   0.00000  Uiso   1.00
C37    C     0.01176   0.45413   0.00203   0.00000  Uiso   1.00
C38    C     0.86889   0.31375  -0.01061   0.00000  Uiso   1.00
C39    C     0.84258   0.25625   0.01785   0.00000  Uiso   1.00
C40    C     0.93958   0.19488  -0.03969   0.00000  Uiso   1.00
H41    H     0.84178   0.35893   0.00158   0.00000  Uiso   1.00
H42    H     0.79502   0.25753   0.05106   0.00000  Uiso   1.00
H43    H     0.85735   0.15247   0.02711   0.00000  Uiso   1.00
H44    H     0.01445   0.25085   0.89928   0.00000  Uiso   1.00
H45    H     0.92443   0.41742   0.89903   0.00000  Uiso   1.00
C46    C     0.04535   0.53155   0.03443   0.00000  Uiso   1.00
C47    C     0.02984   0.52159   0.98260   0.00000  Uiso   1.00
H48    H     0.04205   0.44684   0.91058   0.00000  Uiso   1.00
H49    H     0.96662   0.45168   0.04087   0.00000  Uiso   1.00
H50    H     0.05445   0.41223   0.01695   0.00000  Uiso   1.00
H51    H     0.95468   0.48920   0.93318   0.00000  Uiso   1.00
H52    H     1.00802   0.36538   0.88449   0.00000  Uiso   1.00
H53    H     0.00094   0.52860   0.07397   0.00000  Uiso   1.00
H54    H     0.08972   0.49150   0.04831   0.00000  Uiso   1.00
N55    N     0.06023   0.59799   1.01218   0.00000  Uiso   1.00
N56    N     0.97657   0.38252   0.96969   0.00000  Uiso   1.00
C57    C     0.87797   0.19688   0.00402   0.00000  Uiso   1.00
C58    C     0.20642   1.02147   0.12340   0.00000  Uiso   1.00
C59    C     0.16073   0.06978   0.15040   0.00000  Uiso   1.00
C60    C     0.09563   0.09661   0.14038   0.00000  Uiso   1.00
C61    C     0.07538   0.07423   0.10444   0.00000  Uiso   1.00
C62    C     0.12062   0.02576   0.07827   0.00000  Uiso   1.00
C63    C     0.18613   1.00019   0.08643   0.00000  Uiso   1.00
C64    C     0.27594   0.99184   0.13479   0.00000  Uiso   1.00
H65    H     0.17555   0.08541   0.18006   0.00000  Uiso   1.00
H66    H     0.06057   0.13332   0.16163   0.00000  Uiso   1.00
H67    H     0.02445   0.09194   0.09784   0.00000  Uiso   1.00
H68    H     0.22014   0.96196   1.06658   0.00000  Uiso   1.00
H69    H     0.27451   0.98426   0.18290   0.00000  Uiso   1.00
H70    H     0.29538   0.94129   0.12826   0.00000  Uiso   1.00
C71    C     0.73033   0.05941   0.91189   0.00000  Uiso   1.00
C72    C     0.78390   0.02882   0.94149   0.00000  Uiso   1.00
C73    C     0.66112   0.08553   0.94640   0.00000  Uiso   1.00
C74    C     0.54861   0.07007   0.98973   0.00000  Uiso   1.00
C75    C     0.50621   1.01758   0.02021   0.00000  Uiso   1.00
C76    C     0.74379   1.07450   0.84839   0.00000  Uiso   1.00
C77    C     0.80992   1.06108   0.81468   0.00000  Uiso   1.00
C78    C     0.85110   0.01739   0.90761   0.00000  Uiso   1.00
H79    H     0.70353   1.09987   0.82470   0.00000  Uiso   1.00
H80    H     0.81984   1.07669   0.76550   0.00000  Uiso   1.00
H81    H     0.91398   1.02768   0.81548   0.00000  Uiso   1.00
H82    H     0.77347   0.01946  -0.00970   0.00000  Uiso   1.00
H83    H     0.63930   0.13646   0.91753   0.00000  Uiso   1.00
C84    C     0.38988   1.00115   0.08187   0.00000  Uiso   1.00
C85    C     0.43352   0.05168   0.04327   0.00000  Uiso   1.00
H86    H     0.54793   0.09058   0.02483   0.00000  Uiso   1.00
H87    H     0.50819   0.99447   0.98659   0.00000  Uiso   1.00
H88    H     0.52637   0.97756   0.05910   0.00000  Uiso   1.00
H89    H     0.52685   0.11187   0.95257   0.00000  Uiso   1.00
H90    H     0.66452   0.09107   0.98849   0.00000  Uiso   1.00
H91    H     0.39671   0.96617   0.05680   0.00000  Uiso   1.00
H92    H     0.40525   0.97239   0.12591   0.00000  Uiso   1.00
N93    N     0.31959   0.03769   0.09298   0.00000  Uiso   1.00
N94    N     0.61766   0.03955   0.96335   0.00000  Uiso   1.00
C95    C     0.86328   1.03344   0.84370   0.00000  Uiso   1.00
C96    C     0.92306   0.97484   0.31178   0.00000  Uiso   1.00
C97    C     0.86039   1.01910   0.32482   0.00000  Uiso   1.00
C98    C     0.82416   0.05661   0.27946   0.00000  Uiso   1.00
C99    C     0.84972   0.04923   0.22117   0.00000  Uiso   1.00
C100   C     0.90901   1.00170   0.20943   0.00000  Uiso   1.00
C101   C     0.94782   0.96687   0.25332   0.00000  Uiso   1.00
C102   C     0.96209   0.93486   0.36027   0.00000  Uiso   1.00
H103   H     0.83969   1.02464   0.37001   0.00000  Uiso   1.00
H104   H     0.77615   0.09059   0.28991   0.00000  Uiso   1.00
H105   H     0.82145   0.07715   0.18635   0.00000  Uiso   1.00
H106   H    -0.00503   0.93159   0.24294   0.00000  Uiso   1.00
H107   H     0.93202   0.90003   0.39746   0.00000  Uiso   1.00
H108   H     1.01085   0.90384   0.34219   0.00000  Uiso   1.00
C109   C     0.09657  -0.01764   0.68281   0.00000  Uiso   1.00
C110   C     0.06913   0.00062   0.73664   0.00000  Uiso   1.00
C111   C     0.06678   0.02119   0.62786   0.00000  Uiso   1.00
C112   C     0.03290   0.00904   0.54889   0.00000  Uiso   1.00
C113   C     1.02290   0.95782   0.52728   0.00000  Uiso   1.00
C114   C     0.15330  -0.07191   0.68042   0.00000  Uiso   1.00
C115   C     0.17950   0.89001   0.73219   0.00000  Uiso   1.00
C116   C     0.09941  -0.03428   0.78638   0.00000  Uiso   1.00
H117   H     0.17627  -0.08512   0.63865   0.00000  Uiso   1.00
H118   H     0.22183   0.84726   0.73047   0.00000  Uiso   1.00
H119   H     0.17138   0.87845   0.82615   0.00000  Uiso   1.00
H120   H     1.02711   0.04375   0.73854   0.00000  Uiso   1.00
H121   H     0.10350   0.04909   0.59118   0.00000  Uiso   1.00
C122   C     0.99319   0.94346   0.44227   0.00000  Uiso   1.00
C123   C     1.00424  -0.00733   0.46535   0.00000  Uiso   1.00
H124   H     0.98505   0.04746   0.55507   0.00000  Uiso   1.00
H125   H     0.07029   0.91845   0.52296   0.00000  Uiso   1.00
H126   H     0.98244   0.93339   0.56153   0.00000  Uiso   1.00
H127   H     0.07272   0.03407   0.51386   0.00000  Uiso   1.00
H128   H     0.01942   0.05820   0.63910   0.00000  Uiso   1.00
H129   H     1.04031   0.90401   0.43652   0.00000  Uiso   1.00
H130   H     0.95197   0.91976   0.47622   0.00000  Uiso   1.00
N131   N     0.97450  -0.01959   0.38340   0.00000  Uiso   1.00
N132   N     0.05318  -0.02585   0.60710   0.00000  Uiso   1.00
C133   C     0.15132   0.90780   0.78584   0.00000  Uiso   1.00
loop_
_geom_bond_atom_site_label_1
_geom_bond_atom_site_label_2
_geom_bond_distance
_geom_bond_site_symmetry_2
_ccdc_geom_bond_type
O0     C6      1.310   1_566 A
O0     Yb3     2.244   1_655 S
Yb1    O4      2.139   .     S
Yb1    O17     2.130   .     S
Yb1    O19     2.172   .     S
Yb1    Yb3     2.953   1_644 S
Yb1    O9      2.166   1_545 S
Yb1    O10     2.108   1_644 S
Yb1    O11     2.252   1_655 S
Yb1    O16     2.118   1_645 S
C2     C100    1.459   .     S
C2     O16     1.295   1_655 A
C2     O17     1.283   1_565 A
Yb3    O10     2.115   .     S
Yb3    O12     2.128   .     S
Yb3    O13     2.138   .     S
Yb3    O0      2.244   1_455 S
Yb3    Yb1     2.953   1_466 S
Yb3    O7      2.128   1_465 S
Yb3    O18     2.129   1_565 S
Yb3    O19     2.166   1_466 S
O4     C6      1.289   .     A
C5     O18     1.241   1_655 D
C5     O19     1.407   1_556 S
C5     C40     1.467   1_556 S
C6     O0      1.310   1_544 A
C6     C78     1.484   1_554 S
O7     Yb3     2.128   1_645 S
O7     C8      1.293   1_655 A
C8     C116    1.459   .     S
C8     O7      1.293   1_455 A
C8     O12     1.279   1_545 A
O9     Yb1     2.166   1_565 S
O9     C14     1.239   1_655 D
O10    Yb1     2.108   1_466 S
O10    C14     1.395   1_556 S
O11    Yb1     2.252   1_455 S
O11    C15     1.300   1_544 A
O12    C8      1.279   1_565 A
O13    C15     1.284   .     A
C14    O9      1.239   1_455 D
C14    O10     1.395   1_554 S
C14    C24     1.471   1_554 S
C15    O11     1.300   1_566 A
C15    C62     1.443   1_566 S
O16    Yb1     2.118   1_465 S
O16    C2      1.295   1_455 A
O17    C2      1.283   1_545 A
O18    Yb3     2.129   1_545 S
O18    C5      1.241   1_455 D
O19    Yb3     2.166   1_644 S
O19    C5      1.407   1_554 S
C20    C25     1.407   .     A
C20    C26     1.505   .     S
C20    C21     1.406   1_554 A
C21    C22     1.400   .     A
C21    H27     1.080   .     S
C21    C20     1.406   1_556 A
C22    C23     1.396   .     A
C22    H28     1.081   .     S
C23    C24     1.409   .     A
C23    H29     1.083   .     S
C24    C25     1.408   1_556 A
C24    C14     1.471   1_556 S
C25    C24     1.408   1_554 A
C25    H30     1.082   1_455 S
C26    H31     1.112   .     S
C26    H32     1.113   .     S
C26    N55     1.464   1_554 S
H30    C25     1.082   1_655 S
C33    C34     1.407   .     A
C33    C35     1.504   .     S
C33    C38     1.405   1_556 A
C34    C40     1.406   1_556 A
C34    H44     1.085   1_655 S
C35    H45     1.111   .     S
C35    H52     1.112   .     S
C35    N56     1.462   .     S
C36    H51     1.114   .     S
C36    N56     1.464   .     S
C36    C37     1.526   1_656 S
C36    H48     1.113   1_655 S
C37    H50     1.113   .     S
C37    C36     1.526   1_454 S
C37    C47     1.524   1_554 S
C37    H49     1.114   1_455 S
C38    C39     1.399   .     A
C38    H41     1.080   .     S
C38    C33     1.405   1_554 A
C39    H42     1.080   .     S
C39    C57     1.394   .     A
C40    C57     1.407   .     A
C40    C34     1.406   1_554 A
C40    C5      1.467   1_554 S
H43    C57     1.084   .     S
H44    C34     1.085   1_455 S
C46    H53     1.113   .     S
C46    H54     1.114   .     S
C46    C47     1.524   1_554 S
C46    N55     1.462   1_554 S
C47    C37     1.524   1_556 S
C47    C46     1.524   1_556 S
H48    C36     1.113   1_455 S
H49    C37     1.114   1_655 S
N55    C26     1.464   1_556 S
N55    C46     1.462   1_556 S
C58    C63     1.404   .     A
C58    C64     1.502   .     S
C58    C59     1.408   1_565 A
C59    C60     1.401   .     A
C59    H65     1.085   .     S
C59    C58     1.408   1_545 A
C60    C61     1.399   .     A
C60    H66     1.082   .     S
C61    C62     1.397   .     A
C61    H67     1.086   .     S
C62    C63     1.393   1_545 A
C62    C15     1.443   1_544 S
C63    C62     1.393   1_565 A
C63    H68     1.081   1_554 S
C64    H69     1.112   .     S
C64    H70     1.115   .     S
C64    N93     1.467   1_565 S
H68    C63     1.081   1_556 S
C71    C72     1.407   .     A
C71    C73     1.505   .     S
C71    C76     1.401   1_545 A
C72    C78     1.411   .     A
C72    H82     1.084   1_556 S
C73    H83     1.111   .     S
C73    H90     1.112   .     S
C73    N94     1.465   .     S
C74    H89     1.112   .     S
C74    N94     1.465   .     S
C74    C75     1.526   1_546 S
C74    H86     1.113   1_556 S
C75    H88     1.112   .     S
C75    C74     1.526   1_564 S
C75    C85     1.526   1_565 S
C75    H87     1.111   1_554 S
C76    C77     1.396   .     A
C76    H79     1.080   .     S
C76    C71     1.401   1_565 A
C77    H80     1.078   .     S
C77    C95     1.396   .     A
C78    C95     1.410   1_545 A
C78    C6      1.484   1_556 S
H81    C95     1.083   .     S
H82    C72     1.084   1_554 S
C84    H91     1.113   .     S
C84    H92     1.110   .     S
C84    C85     1.523   1_565 S
C84    N93     1.459   1_565 S
C85    C75     1.526   1_545 S
C85    C84     1.523   1_545 S
H86    C74     1.113   1_554 S
H87    C75     1.111   1_556 S
N93    C64     1.467   1_545 S
N93    C84     1.459   1_545 S
C95    C78     1.410   1_565 A
C96    C97     1.408   .     A
C96    C101    1.411   .     A
C96    C102    1.499   .     S
C97    H103    1.086   .     S
C97    C98     1.399   1_565 A
C98    C99     1.402   .     A
C98    H104    1.082   .     S
C98    C97     1.399   1_545 A
C99    H105    1.078   .     S
C99    C100    1.392   1_545 A
C100   C101    1.404   .     A
C100   C99     1.392   1_565 A
C101   H106    1.083   1_655 S
C102   H107    1.112   .     S
C102   H108    1.110   .     S
C102   N131    1.465   1_565 S
H106   C101    1.083   1_455 S
C109   C110    1.411   .     A
C109   C111    1.503   .     S
C109   C114    1.410   .     A
C110   C116    1.400   .     A
C110   H120    1.084   1_455 S
C111   H121    1.112   .     S
C111   H128    1.111   .     S
C111   N132    1.468   .     S
C112   H127    1.113   .     S
C112   N132    1.463   .     S
C112   C113    1.527   1_445 S
C112   H124    1.111   1_455 S
C113   H126    1.111   .     S
C113   C112    1.527   1_665 S
C113   C123    1.527   1_565 S
C113   H125    1.110   1_655 S
C114   H117    1.086   .     S
C114   C115    1.398   1_545 A
C115   H118    1.082   .     S
C115   C133    1.402   .     A
C115   C114    1.398   1_565 A
C116   C133    1.400   1_545 A
H119   C133    1.084   .     S
H120   C110    1.084   1_655 S
C122   H129    1.112   .     S
C122   H130    1.113   .     S
C122   C123    1.522   1_565 S
C122   N131    1.464   1_565 S
C123   C113    1.527   1_545 S
C123   C122    1.522   1_545 S
H124   C112    1.111   1_655 S
H125   C113    1.110   1_455 S
N131   C102    1.465   1_545 S
N131   C122    1.464   1_545 S
C133   C116    1.400   1_565 A
