data_pcu+N106+E15
_audit_creation_date              2023-11-17
_audit_creation_method            'Materials Studio'
_symmetry_space_group_name_H-M    'P1'
_symmetry_Int_Tables_number       1
_symmetry_cell_setting            triclinic
loop_
_symmetry_equiv_pos_as_xyz
  x,y,z
_cell_length_a                    13.5044
_cell_length_b                    10.6368
_cell_length_c                    9.4589
_cell_angle_alpha                 104.4067
_cell_angle_beta                  72.9317
_cell_angle_gamma                 93.2000
loop_
_atom_site_label
_atom_site_type_symbol
_atom_site_fract_x
_atom_site_fract_y
_atom_site_fract_z
_atom_site_U_iso_or_equiv
_atom_site_adp_type
_atom_site_occupancy
Y0     Y     0.87290   0.00537   0.05688   0.00000  Uiso   1.00
Y1     Y     0.11649   1.01579   1.01133   0.00000  Uiso   1.00
O2     O     0.92090   0.21004   0.02397   0.00000  Uiso   1.00
O3     O     1.01472  -0.07697   0.86929   0.00000  Uiso   1.00
C4     C     0.32107   0.99190   0.97256   0.00000  Uiso   1.00
O5     O     0.11965   1.06036   0.78253   0.00000  Uiso   1.00
O6     O     0.69890   0.04597   0.12410   0.00000  Uiso   1.00
O7     O     0.77372  -0.05668   0.90063   0.00000  Uiso   1.00
O8     O     0.07601   0.22436   1.07073   0.00000  Uiso   1.00
O9     O    -0.02759   1.07947   0.21618   0.00000  Uiso   1.00
O10    O     0.84415  -0.04517   0.28020   0.00000  Uiso   1.00
O11    O     0.91795   0.79112   0.01406   0.00000  Uiso   1.00
C12    C     0.00178   0.27401   1.04340   0.00000  Uiso   1.00
O13    O     0.07053   0.82503   1.06780   0.00000  Uiso   1.00
C14    C     0.05026   0.98888   0.75911   0.00000  Uiso   1.00
O15    O     0.27555   0.93766   0.87574   0.00000  Uiso   1.00
O16    O     0.26043   1.05901   0.09342   0.00000  Uiso   1.00
C17    C     0.68951  -0.01061  -0.00554   0.00000  Uiso   1.00
C18    C     0.99797   0.74992   0.03855   0.00000  Uiso   1.00
C19    C     0.92056   0.00266   0.31289   0.00000  Uiso   1.00
N20    N     0.11944   0.44567  -0.02467   0.00000  Uiso   1.00
N21    N     0.11844   0.56841  -0.02635   0.00000  Uiso   1.00
C22    C     0.01971   0.61138   0.01672   0.00000  Uiso   1.00
C23    C     0.95332   0.50901   1.04537   0.00000  Uiso   1.00
C24    C     0.02138   0.40576   0.01965   0.00000  Uiso   1.00
H25    H     0.86965   0.51156   1.08770   0.00000  Uiso   1.00
H26    H     0.18721   0.39081  -0.05145   0.00000  Uiso   1.00
H27    H     0.18530   0.62239  -0.05432   0.00000  Uiso   1.00
N28    N     0.58996   0.91134   0.81052   0.00000  Uiso   1.00
N29    N     0.49371   0.91155   0.80490   0.00000  Uiso   1.00
C30    C     0.43319   0.97587  -0.05835   0.00000  Uiso   1.00
C31    C     0.49372   0.01907   0.03993   0.00000  Uiso   1.00
C32    C     0.59299   0.97522  -0.04889   0.00000  Uiso   1.00
H33    H     0.46917   0.07272   0.15807   0.00000  Uiso   1.00
H34    H     0.65239   0.86735   0.71914   0.00000  Uiso   1.00
H35    H     0.47020   0.86799   0.70844   0.00000  Uiso   1.00
N36    N     0.94597  -0.13712   0.60467   0.00000  Uiso   1.00
N37    N     0.91059  -0.13227   0.49082   0.00000  Uiso   1.00
C38    C     0.95024  -0.02860   0.43760   0.00000  Uiso   1.00
C39    C     0.01541   1.03621   0.52137   0.00000  Uiso   1.00
C40    C     1.00869  -0.03629   0.62811   0.00000  Uiso   1.00
H41    H     0.05685   1.12506   0.51113   0.00000  Uiso   1.00
H42    H     0.92557  -0.20779   0.66708   0.00000  Uiso   1.00
H43    H     0.85910  -0.19899   0.45133   0.00000  Uiso   1.00
loop_
_geom_bond_atom_site_label_1
_geom_bond_atom_site_label_2
_geom_bond_distance
_geom_bond_site_symmetry_2
_ccdc_geom_bond_type
Y0     O2      2.306   .     S
Y0     O6      2.283   .     S
Y0     O10     2.228   .     S
Y0     O3      2.237   1_554 S
Y0     O7      2.234   1_554 S
Y0     O9      2.275   1_645 S
Y0     O11     2.297   1_545 S
Y1     O5      2.316   .     S
Y1     O13     2.234   .     S
Y1     O15     2.236   .     S
Y1     O3      2.223   1_465 S
Y1     O8      2.207   1_565 S
Y1     O9      2.298   1_556 S
Y1     O16     2.281   1_556 S
O2     C12     1.289   1_654 A
O3     Y0      2.237   1_556 S
O3     Y1      2.223   1_645 S
O3     C14     1.356   1_645 S
C4     O15     1.256   .     A
C4     O16     1.264   1_556 A
C4     C30     1.467   1_556 S
O5     C14     1.210   .     D
O6     C17     1.264   .     A
O7     Y0      2.234   1_556 S
O7     C17     1.255   1_556 A
O8     C12     1.277   .     A
O8     Y1      2.207   1_545 S
O9     Y0      2.275   1_465 S
O9     Y1      2.298   1_554 S
O9     C19     1.388   1_465 S
O10    C19     1.212   .     D
O11    C18     1.290   .     A
O11    Y0      2.297   1_565 S
C12    O2      1.289   1_456 A
C12    C24     1.471   1_556 S
O13    C18     1.279   1_456 A
C14    O3      1.356   1_465 S
C14    C40     1.466   1_465 S
O16    Y1      2.281   1_554 S
O16    C4      1.264   1_554 A
C17    O7      1.255   1_554 A
C17    C32     1.467   1_545 S
C18    O13     1.279   1_654 A
C18    C22     1.470   1_655 S
C19    C38     1.466   .     S
C19    O9      1.388   1_645 S
N20    N21     1.311   .     A
N20    C24     1.345   .     A
N20    H26     1.045   .     S
N21    C22     1.345   .     A
N21    H27     1.045   .     S
C22    C23     1.399   1_454 A
C22    C18     1.470   1_455 S
C23    H25     1.082   .     S
C23    C22     1.399   1_656 A
C23    C24     1.400   1_656 A
C24    C23     1.400   1_454 A
C24    C12     1.471   1_554 S
N28    N29     1.317   .     A
N28    H34     1.045   .     S
N28    C32     1.346   1_556 A
N29    H35     1.045   .     S
N29    C30     1.346   1_556 A
C30    N29     1.346   1_554 A
C30    C31     1.391   1_565 A
C30    C4      1.467   1_554 S
C31    H33     1.082   .     S
C31    C30     1.391   1_545 A
C31    C32     1.391   1_545 A
C32    N28     1.346   1_554 A
C32    C31     1.391   1_565 A
C32    C17     1.467   1_565 S
N36    N37     1.313   .     A
N36    C40     1.344   .     A
N36    H42     1.045   .     S
N37    C38     1.345   .     A
N37    H43     1.045   .     S
C38    C39     1.395   1_645 A
C39    H41     1.082   .     S
C39    C38     1.395   1_465 A
C39    C40     1.396   1_465 A
C40    C39     1.396   1_645 A
C40    C14     1.466   1_645 S
