data_pcu+N205+E161
_audit_creation_date              2023-11-17
_audit_creation_method            'Materials Studio'
_symmetry_space_group_name_H-M    'P1'
_symmetry_Int_Tables_number       1
_symmetry_cell_setting            triclinic
loop_
_symmetry_equiv_pos_as_xyz
  x,y,z
_cell_length_a                    24.3425
_cell_length_b                    27.2735
_cell_length_c                    23.2496
_cell_angle_alpha                 97.8572
_cell_angle_beta                  96.4305
_cell_angle_gamma                 92.2506
loop_
_atom_site_label
_atom_site_type_symbol
_atom_site_fract_x
_atom_site_fract_y
_atom_site_fract_z
_atom_site_U_iso_or_equiv
_atom_site_adp_type
_atom_site_occupancy
Y0     Y     0.01925   0.06053   0.00558   0.00000  Uiso   1.00
Y1     Y     0.98023   0.92629   0.99496   0.00000  Uiso   1.00
C2     C     0.87304   0.95048   0.99329   0.00000  Uiso   1.00
C3     C     1.01671  -0.00047   0.10573   0.00000  Uiso   1.00
C4     C    -0.01028   0.15420   0.00232   0.00000  Uiso   1.00
C5     C     0.12994   0.05010   0.00543   0.00000  Uiso   1.00
C6     C    -0.00459   0.98562   0.89394   0.00000  Uiso   1.00
C7     C     0.99010   0.82790   0.99601   0.00000  Uiso   1.00
O8     O     0.89389   0.93108   0.94901   0.00000  Uiso   1.00
O9     O     0.90772   0.95812   0.03819   0.00000  Uiso   1.00
O10    O     0.99006   0.03273   0.08368   0.00000  Uiso   1.00
O11    O     1.03676   0.96569   0.07225   0.00000  Uiso   1.00
O12    O    -0.00784   0.12328   0.95708   0.00000  Uiso   1.00
O13    O     0.00099   0.13605   0.04914   0.00000  Uiso   1.00
O14    O     0.09368   0.01543  -0.01073   0.00000  Uiso   1.00
O15    O     0.10909   0.09008   1.02262   0.00000  Uiso   1.00
O16    O     0.01827   0.95257   0.92024   0.00000  Uiso   1.00
O17    O    -0.02768   0.02043   0.92265   0.00000  Uiso   1.00
O18    O     0.99129   0.85897   0.04152   0.00000  Uiso   1.00
O19    O     0.98497   0.84793   0.95022   0.00000  Uiso   1.00
H20    H    -0.00673   0.22674   0.09436   0.00000  Uiso   1.00
C21    C     0.99330   0.77402  -0.00398   0.00000  Uiso   1.00
C22    C     0.98443   0.74165   0.94316   0.00000  Uiso   1.00
C23    C     0.98392   0.69013   0.94262   0.00000  Uiso   1.00
C24    C     0.99322   0.67073   0.99588   0.00000  Uiso   1.00
C25    C     0.00366   0.70318   0.04915   0.00000  Uiso   1.00
C26    C     0.00335   0.75457   0.04879   0.00000  Uiso   1.00
C27    C     0.97268   0.65602   0.88546   0.00000  Uiso   1.00
C28    C     0.01460   0.68310   0.10626   0.00000  Uiso   1.00
C29    C     0.03618   0.59156   0.98992   0.00000  Uiso   1.00
C30    C     0.03352   0.53987   0.98934   0.00000  Uiso   1.00
C31    C     0.98264   0.51565   0.99527   0.00000  Uiso   1.00
C32    C     0.93544   0.54328   0.00155   0.00000  Uiso   1.00
C33    C     0.94009   0.59487   0.00176   0.00000  Uiso   1.00
C34    C     0.08034   0.51193   0.98303   0.00000  Uiso   1.00
C35    C     0.07674   0.46061   0.98278   0.00000  Uiso   1.00
C36    C     0.02623   0.43613   0.98880   0.00000  Uiso   1.00
C37    C     0.97898   0.46372   0.99498   0.00000  Uiso   1.00
C38    C     0.92813   0.43950   0.00105   0.00000  Uiso   1.00
C39    C     0.88127   0.46744   0.00716   0.00000  Uiso   1.00
C40    C     0.88492   0.51878   0.00745   0.00000  Uiso   1.00
C41    C     0.02173   0.38464   0.98907   0.00000  Uiso   1.00
C42    C     0.92563   0.38786   0.00105   0.00000  Uiso   1.00
C43    C     0.96944   0.30902   0.99731   0.00000  Uiso   1.00
C44    C     0.94780   0.29159   0.88596   0.00000  Uiso   1.00
C45    C    -0.03493   0.22422   0.94731   0.00000  Uiso   1.00
C46    C     0.98895   0.32668   0.10783   0.00000  Uiso   1.00
C47    C     0.98373   0.24019   0.05284   0.00000  Uiso   1.00
C48    C     0.97997   0.29124   0.05154   0.00000  Uiso   1.00
C49    C     0.96063   0.27506   0.94496   0.00000  Uiso   1.00
C50    C    -0.02207   0.20666   1.00086   0.00000  Uiso   1.00
H51    H     0.95168   0.34831   0.11291   0.00000  Uiso   1.00
N52    N     0.98985   0.61785   0.99600   0.00000  Uiso   1.00
N53    N     0.97210   0.36167   0.99545   0.00000  Uiso   1.00
H54    H     0.02525   0.35249   0.10736   0.00000  Uiso   1.00
H55    H     0.97679   0.75652   0.90230   0.00000  Uiso   1.00
H56    H     0.01060   0.77947   0.08973   0.00000  Uiso   1.00
H57    H     0.96563   0.67697   0.84780   0.00000  Uiso   1.00
H58    H     1.00859   0.63286   0.87900   0.00000  Uiso   1.00
H59    H     0.93521   0.63151   0.88572   0.00000  Uiso   1.00
H60    H     0.05185   0.66090   0.10588   0.00000  Uiso   1.00
H61    H     0.02198   0.71331   0.14393   0.00000  Uiso   1.00
H62    H     0.97848   0.65923   0.11282   0.00000  Uiso   1.00
O63    O     0.89448   0.62240   0.00776   0.00000  Uiso   1.00
O64    O     0.08541   0.61579   0.98437   0.00000  Uiso   1.00
H65    H     0.11988   0.52961   0.97824   0.00000  Uiso   1.00
H66    H     0.84798   0.53918   0.01221   0.00000  Uiso   1.00
H67    H     0.11365   0.44023   0.97788   0.00000  Uiso   1.00
H68    H     0.90714   0.27429   0.86485   0.00000  Uiso   1.00
H69    H    -0.05415   0.33241   0.88865   0.00000  Uiso   1.00
H70    H    -0.04003   0.19849   0.90693   0.00000  Uiso   1.00
H71    H     0.84164   0.44976   0.01172   0.00000  Uiso   1.00
H72    H    -0.00338   0.30685   0.14639   0.00000  Uiso   1.00
O73    O     0.87652   0.36361   0.00706   0.00000  Uiso   1.00
O74    O     0.06746   0.35721   0.98342   0.00000  Uiso   1.00
H75    H    -0.01974   0.27963   0.85792   0.00000  Uiso   1.00
H76    H     0.83165   0.02362   0.06301   0.00000  Uiso   1.00
C77    C     0.18984   1.04429   0.00439   0.00000  Uiso   1.00
C78    C     0.20892   0.99919   0.97986   0.00000  Uiso   1.00
C79    C     0.26573   0.99316   0.97843   0.00000  Uiso   1.00
C80    C     0.30414   1.03283   0.00230   0.00000  Uiso   1.00
C81    C     0.28519   0.07835   0.02700   0.00000  Uiso   1.00
C82    C     0.22815   0.08373   0.02763   0.00000  Uiso   1.00
C83    C     0.28520   0.94457   0.95132   0.00000  Uiso   1.00
C84    C     0.32562   0.12100   0.05278   0.00000  Uiso   1.00
C85    C     0.38823   1.04147   0.95671   0.00000  Uiso   1.00
C86    C     0.44529   1.03620   0.95522   0.00000  Uiso   1.00
C87    C     0.47543   1.01481  -0.00011   0.00000  Uiso   1.00
C88    C     0.44840   0.99966   0.04555   0.00000  Uiso   1.00
C89    C     0.39149   1.00655   0.04577   0.00000  Uiso   1.00
C90    C     0.47282   0.05170   0.91027   0.00000  Uiso   1.00
C91    C     0.52962   1.04613   0.90973   0.00000  Uiso   1.00
C92    C     0.56000   1.02440   0.95378   0.00000  Uiso   1.00
C93    C     0.53271   1.00841   0.99882   0.00000  Uiso   1.00
C94    C     0.56260   0.98603   0.04280   0.00000  Uiso   1.00
C95    C     0.53517   0.97091   0.08802   0.00000  Uiso   1.00
C96    C     0.47877   0.97794   0.08959   0.00000  Uiso   1.00
C97    C     0.61704   0.01784   0.95382   0.00000  Uiso   1.00
C98    C     0.61918   0.97897   0.04006   0.00000  Uiso   1.00
C99    C     0.70288   0.98556   0.99336   0.00000  Uiso   1.00
C100   C     0.67436   0.91311   0.91314   0.00000  Uiso   1.00
C101   C     0.77386   0.93553   0.95278   0.00000  Uiso   1.00
C102   C     0.73158   0.05806   0.07473   0.00000  Uiso   1.00
C103   C     0.79988   0.00208   0.03242   0.00000  Uiso   1.00
C104   C     0.74450   0.01433   0.03246   0.00000  Uiso   1.00
C105   C     0.71789   0.94574   0.95354   0.00000  Uiso   1.00
C106   C     0.81478   0.96302   0.99261   0.00000  Uiso   1.00
H107   H     0.74219   0.05031   0.12019   0.00000  Uiso   1.00
N108   N     0.36262   1.02683   0.00158   0.00000  Uiso   1.00
N109   N     0.64519   0.99476   0.99600   0.00000  Uiso   1.00
H110   H     0.68740   0.06680   0.06888   0.00000  Uiso   1.00
H111   H     0.17942   0.96869   0.96159   0.00000  Uiso   1.00
H112   H     0.21357   0.11871   0.04639   0.00000  Uiso   1.00
H113   H     0.24999   0.91746   0.93394   0.00000  Uiso   1.00
H114   H     0.30895   0.95077   0.91462   0.00000  Uiso   1.00
H115   H     0.31219   0.92818   0.98459   0.00000  Uiso   1.00
H116   H     0.34954   0.13219   0.01834   0.00000  Uiso   1.00
H117   H     0.30424   0.15364   0.07142   0.00000  Uiso   1.00
H118   H     0.35457   0.10958   0.08829   0.00000  Uiso   1.00
O119   O     0.36454   0.99249   0.09022   0.00000  Uiso   1.00
O120   O     0.35798   0.06135   0.91292   0.00000  Uiso   1.00
H121   H     0.45059   0.06827   0.87542   0.00000  Uiso   1.00
H122   H     0.45895   0.96591   0.12511   0.00000  Uiso   1.00
H123   H     0.54953   0.05862   0.87453   0.00000  Uiso   1.00
H124   H     0.69268   0.88238   0.88664   0.00000  Uiso   1.00
H125   H     0.64466   0.89671   0.93914   0.00000  Uiso   1.00
H126   H     0.78544   0.90501   0.92238   0.00000  Uiso   1.00
H127   H     0.55720   0.95372   0.12242   0.00000  Uiso   1.00
H128   H     0.75665   0.09134   0.06825   0.00000  Uiso   1.00
O129   O     0.64856   0.95602   0.08169   0.00000  Uiso   1.00
O130   O     0.64457   0.03428   0.91109   0.00000  Uiso   1.00
H131   H     0.65165   0.93518   0.88260   0.00000  Uiso   1.00
H132   H     0.94822   0.04821   0.82404   0.00000  Uiso   1.00
C133   C     1.02127   0.99846   0.16960   0.00000  Uiso   1.00
C134   C     0.05149   0.96249   0.19507   0.00000  Uiso   1.00
C135   C     0.05328   0.95978   0.25517   0.00000  Uiso   1.00
C136   C     0.02444   0.99365   0.29043   0.00000  Uiso   1.00
C137   C     0.99467   0.03034   0.26527   0.00000  Uiso   1.00
C138   C     0.99346   0.03249   0.20524   0.00000  Uiso   1.00
C139   C     0.08528   0.92049   0.28139   0.00000  Uiso   1.00
C140   C     0.96347   0.06665   0.30217   0.00000  Uiso   1.00
C141   C     0.06322   0.01646   0.39188   0.00000  Uiso   1.00
C142   C     0.06144   0.01562   0.45199   0.00000  Uiso   1.00
C143   C     0.01874   0.98709   0.47002   0.00000  Uiso   1.00
C144   C     0.97906   0.95950   0.42796   0.00000  Uiso   1.00
C145   C     0.98260   0.96142   0.36841   0.00000  Uiso   1.00
C146   C     0.10083   0.04290   0.49437   0.00000  Uiso   1.00
C147   C     0.09758   0.04221   0.55390   0.00000  Uiso   1.00
C148   C     0.05494   0.01414   0.57234   0.00000  Uiso   1.00
C149   C     0.01547   0.98635   0.53024   0.00000  Uiso   1.00
C150   C     0.97256   0.95804   0.54823   0.00000  Uiso   1.00
C151   C     0.93338   0.93048   0.50588   0.00000  Uiso   1.00
C152   C     0.93663   0.93117   0.44639   0.00000  Uiso   1.00
C153   C     0.05060   0.01310   0.63196   0.00000  Uiso   1.00
C154   C     0.96988   0.95822   0.60832   0.00000  Uiso   1.00
C155   C     0.00482   0.98508   0.71005   0.00000  Uiso   1.00
C156   C     0.06432   0.90987   0.70928   0.00000  Uiso   1.00
C157   C     0.02730   0.94910   0.79940   0.00000  Uiso   1.00
C158   C     0.94543   0.05932   0.70993   0.00000  Uiso   1.00
C159   C     0.97119   0.02043   0.80060   0.00000  Uiso   1.00
C160   C     0.97442   0.02082   0.74079   0.00000  Uiso   1.00
C161   C     0.03140   0.94899   0.73971   0.00000  Uiso   1.00
C162   C    -0.00245  -0.01521   0.83037   0.00000  Uiso   1.00
H163   H     0.91480   0.04085   0.67370   0.00000  Uiso   1.00
N164   N     0.02381   0.98999   0.35161   0.00000  Uiso   1.00
N165   N     0.00850   0.98556   0.64870   0.00000  Uiso   1.00
H166   H     0.97602   0.08232   0.69175   0.00000  Uiso   1.00
H167   H     0.07320   0.93611   0.16802   0.00000  Uiso   1.00
H168   H     0.96988   0.06038   0.18616   0.00000  Uiso   1.00
H169   H     0.10570   0.89692   0.24811   0.00000  Uiso   1.00
H170   H     0.11790   0.93821   0.31609   0.00000  Uiso   1.00
H171   H     0.05699   0.89612   0.30074   0.00000  Uiso   1.00
H172   H     0.99263   0.08844   0.33740   0.00000  Uiso   1.00
H173   H     0.94214   0.09293   0.27593   0.00000  Uiso   1.00
H174   H     0.93174   0.04644   0.32213   0.00000  Uiso   1.00
O175   O     0.94401   0.93509   0.32687   0.00000  Uiso   1.00
O176   O     0.10413   0.04443   0.37345   0.00000  Uiso   1.00
H177   H     0.13418   0.06501   0.48174   0.00000  Uiso   1.00
H178   H     0.90564   0.90961   0.41493   0.00000  Uiso   1.00
H179   H     0.12850   0.06380   0.58542   0.00000  Uiso   1.00
H180   H     0.04453   0.87274   0.71053   0.00000  Uiso   1.00
H181   H     0.06713   0.91401   0.66294   0.00000  Uiso   1.00
H182   H     0.04806   0.92139   0.82179   0.00000  Uiso   1.00
H183   H     0.89998   0.90846   0.51858   0.00000  Uiso   1.00
H184   H     0.92295   0.08431   0.73991   0.00000  Uiso   1.00
O185   O     0.92824   0.93106   0.62669   0.00000  Uiso   1.00
O186   O     0.08874   0.03987   0.67362   0.00000  Uiso   1.00
H187   H     0.10703   0.91178   0.73218   0.00000  Uiso   1.00
loop_
_geom_bond_atom_site_label_1
_geom_bond_atom_site_label_2
_geom_bond_distance
_geom_bond_site_symmetry_2
_ccdc_geom_bond_type
Y0     O13     2.251   .     S
Y0     O14     2.267   .     S
Y0     O10     2.236   1_455 S
Y0     O12     2.255   1_554 S
Y0     O15     2.274   1_554 S
Y0     O17     2.247   1_554 S
Y1     O8      2.266   .     S
Y1     O19     2.259   .     S
Y1     O9      2.271   1_556 S
Y1     O11     2.254   1_556 S
Y1     O16     2.244   1_655 S
Y1     O18     2.265   1_556 S
C2     O8      1.260   .     A
C2     C106    1.471   .     S
C2     O9      1.255   1_556 A
C3     O10     1.266   .     A
C3     O11     1.273   1_545 A
C3     C133    1.481   1_545 S
C4     O13     1.263   .     A
C4     O12     1.263   1_554 A
C4     C50     1.474   1_554 S
C5     O14     1.256   .     A
C5     O15     1.256   1_554 A
C5     C77     1.475   1_545 S
C6     O16     1.269   .     A
C6     O17     1.271   1_565 A
C6     C162    1.482   1_565 S
C7     O19     1.258   .     A
C7     O18     1.259   1_556 A
C7     C21     1.474   1_556 S
O9     Y1      2.271   1_554 S
O9     C2      1.255   1_554 A
O10    Y0      2.236   1_655 S
O11    Y1      2.254   1_554 S
O11    C3      1.273   1_565 A
O12    Y0      2.255   1_556 S
O12    C4      1.263   1_556 A
O15    Y0      2.274   1_556 S
O15    C5      1.256   1_556 A
O16    Y1      2.244   1_455 S
O17    Y0      2.247   1_556 S
O17    C6      1.271   1_545 A
O18    Y1      2.265   1_554 S
O18    C7      1.259   1_554 A
H20    C47     1.083   1_455 S
C21    C22     1.402   1_554 A
C21    C26     1.403   1_655 A
C21    C7      1.474   1_554 S
C22    C23     1.403   .     A
C22    H55     1.083   .     S
C22    C21     1.402   1_556 A
C23    C24     1.411   .     A
C23    C27     1.506   .     S
C24    N52     1.442   .     S
C24    C25     1.412   1_656 A
C25    C26     1.403   .     A
C25    C28     1.505   .     S
C25    C24     1.412   1_454 A
C26    H56     1.084   .     S
C26    C21     1.403   1_455 A
C27    H57     1.111   .     S
C27    H58     1.110   .     S
C27    H59     1.110   .     S
C28    H60     1.110   .     S
C28    H61     1.111   .     S
C28    H62     1.110   1_455 S
C29    C30     1.407   .     A
C29    O64     1.373   .     S
C29    N52     1.370   1_455 A
C30    C34     1.406   .     A
C30    C31     1.410   1_455 A
C31    C37     1.415   .     A
C31    C30     1.410   1_655 A
C31    C32     1.409   1_556 A
C32    C33     1.406   .     A
C32    C40     1.406   .     A
C32    C31     1.409   1_554 A
C33    O63     1.374   .     S
C33    N52     1.370   1_554 A
C34    C35     1.398   .     A
C34    H65     1.083   .     S
C35    C36     1.406   .     A
C35    H67     1.083   .     S
C36    C41     1.405   .     A
C36    C37     1.409   1_455 A
C37    C36     1.409   1_655 A
C37    C38     1.410   1_556 A
C38    C39     1.406   .     A
C38    C42     1.407   .     A
C38    C37     1.410   1_554 A
C39    C40     1.399   .     A
C39    H71     1.084   .     S
C40    H66     1.084   .     S
C41    O74     1.374   .     S
C41    N53     1.371   1_455 A
C42    O73     1.374   .     S
C42    N53     1.370   1_554 A
C43    C49     1.415   .     A
C43    N53     1.442   .     S
C43    C48     1.412   1_556 A
C44    C49     1.506   .     S
C44    H68     1.111   .     S
C44    H69     1.110   1_655 S
C44    H75     1.111   1_655 S
C45    C50     1.402   .     A
C45    H70     1.084   .     S
C45    C49     1.403   1_455 A
C46    C48     1.506   .     S
C46    H51     1.110   .     S
C46    H54     1.110   1_655 S
C46    H72     1.111   1_655 S
C47    C48     1.403   .     A
C47    H20     1.083   1_655 S
C47    C50     1.402   1_654 A
C48    C43     1.412   1_554 A
C49    C45     1.403   1_655 A
C50    C47     1.402   1_456 A
C50    C4      1.474   1_556 S
N52    C29     1.370   1_655 A
N52    C33     1.370   1_556 A
N53    C41     1.371   1_655 A
N53    C42     1.370   1_556 A
H54    C46     1.110   1_455 S
H62    C28     1.110   1_655 S
H69    C44     1.110   1_455 S
H72    C46     1.111   1_455 S
H75    C44     1.111   1_455 S
H76    C103    1.084   .     S
C77    C78     1.402   1_554 A
C77    C82     1.403   1_565 A
C77    C5      1.475   1_565 S
C78    C79     1.403   .     A
C78    H111    1.084   .     S
C78    C77     1.402   1_556 A
C79    C83     1.505   .     S
C79    C80     1.412   1_556 A
C80    N108    1.441   .     S
C80    C79     1.412   1_554 A
C80    C81     1.412   1_565 A
C81    C82     1.403   .     A
C81    C84     1.506   .     S
C81    C80     1.412   1_545 A
C82    H112    1.083   .     S
C82    C77     1.403   1_545 A
C83    H113    1.112   .     S
C83    H114    1.110   .     S
C83    H115    1.111   .     S
C84    H116    1.109   .     S
C84    H117    1.110   .     S
C84    H118    1.110   .     S
C85    C86     1.406   .     A
C85    N108    1.370   1_556 A
C85    O120    1.374   1_565 S
C86    C87     1.409   1_556 A
C86    C90     1.405   1_565 A
C87    C88     1.409   .     A
C87    C86     1.409   1_554 A
C87    C93     1.415   1_554 A
C88    C89     1.406   .     A
C88    C96     1.406   .     A
C89    N108    1.371   .     A
C89    O119    1.373   .     S
C90    H121    1.084   .     S
C90    C86     1.405   1_545 A
C90    C91     1.398   1_545 A
C91    C92     1.406   .     A
C91    C90     1.398   1_565 A
C91    H123    1.083   1_565 S
C92    C93     1.409   .     A
C92    C97     1.407   1_565 A
C93    C87     1.415   1_556 A
C93    C94     1.409   1_556 A
C94    C95     1.406   .     A
C94    C98     1.405   .     A
C94    C93     1.409   1_554 A
C95    C96     1.397   .     A
C95    H127    1.083   .     S
C96    H122    1.083   .     S
C97    O130    1.373   .     S
C97    C92     1.407   1_545 A
C97    N109    1.371   1_545 A
C98    O129    1.374   .     S
C98    N109    1.371   1_554 A
C99    C105    1.415   .     A
C99    N109    1.443   .     S
C99    C104    1.416   1_566 A
C100   C105    1.507   .     S
C100   H124    1.109   .     S
C100   H125    1.111   .     S
C100   H131    1.108   .     S
C101   C105    1.403   .     A
C101   C106    1.399   .     A
C101   H126    1.084   .     S
C102   C104    1.505   .     S
C102   H107    1.110   .     S
C102   H110    1.108   .     S
C102   H128    1.111   .     S
C103   C104    1.402   .     A
C103   C106    1.400   1_544 A
C104   C99     1.416   1_544 A
C106   C103    1.400   1_566 A
N108   C85     1.370   1_554 A
N109   C97     1.371   1_565 A
N109   C98     1.371   1_556 A
O120   C85     1.374   1_545 S
H123   C91     1.083   1_545 S
H132   C159    1.083   .     S
C133   C134    1.404   1_655 A
C133   C138    1.404   1_565 A
C133   C3      1.481   1_565 S
C134   C135    1.405   .     A
C134   H167    1.083   .     S
C134   C133    1.404   1_455 A
C135   C136    1.411   .     A
C135   C139    1.505   .     S
C136   N164    1.441   .     S
C136   C137    1.411   1_465 A
C137   C138    1.402   .     A
C137   C140    1.506   .     S
C137   C136    1.411   1_645 A
C138   H168    1.084   .     S
C138   C133    1.404   1_545 A
C139   H169    1.111   .     S
C139   H170    1.111   .     S
C139   H171    1.111   .     S
C140   H172    1.110   .     S
C140   H173    1.110   .     S
C140   H174    1.110   .     S
C141   C142    1.406   .     A
C141   O176    1.372   .     S
C141   N164    1.370   1_545 A
C142   C146    1.406   .     A
C142   C143    1.409   1_545 A
C143   C149    1.414   .     A
C143   C142    1.409   1_565 A
C143   C144    1.409   1_455 A
C144   C145    1.405   .     A
C144   C152    1.405   .     A
C144   C143    1.409   1_655 A
C145   O175    1.373   .     S
C145   N164    1.370   1_655 A
C146   C147    1.398   .     A
C146   H177    1.083   .     S
C147   C148    1.405   .     A
C147   H179    1.084   .     S
C148   C153    1.406   .     A
C148   C149    1.409   1_545 A
C149   C148    1.409   1_565 A
C149   C150    1.409   1_455 A
C150   C151    1.405   .     A
C150   C154    1.405   .     A
C150   C149    1.409   1_655 A
C151   C152    1.397   .     A
C151   H183    1.083   .     S
C152   H178    1.083   .     S
C153   O186    1.373   .     S
C153   N165    1.369   1_545 A
C154   O185    1.372   .     S
C154   N165    1.370   1_655 A
C155   C161    1.414   .     A
C155   N165    1.441   .     S
C155   C160    1.412   1_465 A
C156   C161    1.506   .     S
C156   H180    1.110   .     S
C156   H181    1.108   .     S
C156   H187    1.110   .     S
C157   C161    1.402   .     A
C157   H182    1.084   .     S
C157   C162    1.404   1_565 A
C158   C160    1.505   .     S
C158   H163    1.110   .     S
C158   H166    1.110   .     S
C158   H184    1.111   .     S
C159   C160    1.403   .     A
C159   C162    1.403   1_655 A
C160   C155    1.412   1_645 A
C162   C157    1.404   1_545 A
C162   C159    1.403   1_455 A
C162   C6      1.482   1_545 S
N164   C141    1.370   1_565 A
N164   C145    1.370   1_455 A
N165   C153    1.369   1_565 A
N165   C154    1.370   1_455 A
