data_pcu+N144+E28
_audit_creation_date              2023-11-17
_audit_creation_method            'Materials Studio'
_symmetry_space_group_name_H-M    'P1'
_symmetry_Int_Tables_number       1
_symmetry_cell_setting            triclinic
loop_
_symmetry_equiv_pos_as_xyz
  x,y,z
_cell_length_a                    21.4340
_cell_length_b                    19.9348
_cell_length_c                    19.9171
_cell_angle_alpha                 87.8787
_cell_angle_beta                  106.2258
_cell_angle_gamma                 107.0324
loop_
_atom_site_label
_atom_site_type_symbol
_atom_site_fract_x
_atom_site_fract_y
_atom_site_fract_z
_atom_site_U_iso_or_equiv
_atom_site_adp_type
_atom_site_occupancy
C0     C     0.19701   0.07136   0.02004   0.00000  Uiso   1.00
Er1    Er    0.93874   0.96268   1.00007   0.00000  Uiso   1.00
Er2    Er    0.05393   0.99838   0.03336   0.00000  Uiso   1.00
C3     C    -0.00238   0.97710   0.15828   0.00000  Uiso   1.00
O4     O     0.05570   0.10756   0.03351   0.00000  Uiso   1.00
C5     C    -0.00071   0.84040   0.01807   0.00000  Uiso   1.00
C6     C     0.99439   0.98360   0.87497   0.00000  Uiso   1.00
C7     C     0.81943  -0.01378   0.97123   0.00000  Uiso   1.00
O8     O     0.16918   0.11207  -0.01373   0.00000  Uiso   1.00
O9     O     0.16671   0.02789   1.06572   0.00000  Uiso   1.00
O10    O     0.05051   1.00028   0.92313   0.00000  Uiso   1.00
O11    O     0.93845   0.96609   0.89102   0.00000  Uiso   1.00
O12    O     0.05456   0.88984   0.03465   0.00000  Uiso   1.00
O13    O     0.94333   0.85505   1.00130   0.00000  Uiso   1.00
C14    C     1.00046   0.12358   0.01652   0.00000  Uiso   1.00
O15    O     0.94370   0.07474   0.00023   0.00000  Uiso   1.00
O16    O     0.05353   0.99535   0.14225   0.00000  Uiso   1.00
O17    O     0.94163   0.95995   0.11002   0.00000  Uiso   1.00
O18    O     0.87573   0.03469   0.98452   0.00000  Uiso   1.00
O19    O     0.82771  -0.07383  -0.02893   0.00000  Uiso   1.00
C20    C     1.00107   0.62491   0.01754   0.00000  Uiso   1.00
C21    C     0.94062   0.64254   0.98730   0.00000  Uiso   1.00
C22    C     0.94000   0.71244   0.98791   0.00000  Uiso   1.00
C23    C    -0.00006   0.76640   0.01807   0.00000  Uiso   1.00
C24    C     0.06041   0.74890   0.04820   0.00000  Uiso   1.00
C25    C     0.06092   0.67893   0.04801   0.00000  Uiso   1.00
C26    C     1.00168   0.55081   0.01640   0.00000  Uiso   1.00
N27    N     1.05691   0.53203   0.05400   0.00000  Uiso   1.00
N28    N     1.05742   0.46542   0.05293   0.00000  Uiso   1.00
C29    C     1.00277   0.41476   0.01407   0.00000  Uiso   1.00
N30    N     0.94762   0.43361   0.97633   0.00000  Uiso   1.00
N31    N     0.94709   0.50018   0.97741   0.00000  Uiso   1.00
C32    C     1.00268   0.34032   0.01389   0.00000  Uiso   1.00
C33    C     0.94370   0.28733   0.97915   0.00000  Uiso   1.00
C34    C     0.94312   0.21706   0.97985   0.00000  Uiso   1.00
C35    C     0.00148   0.19808   0.01545   0.00000  Uiso   1.00
C36    C     0.06072   0.25092   0.04982   0.00000  Uiso   1.00
C37    C     0.06125   0.32127   0.04923   0.00000  Uiso   1.00
H38    H     0.89358   0.60233   0.96352   0.00000  Uiso   1.00
H39    H     0.89256   0.72423   0.96443   0.00000  Uiso   1.00
H40    H     0.10739   0.78933   0.07150   0.00000  Uiso   1.00
H41    H     0.10848   0.66733   0.07115   0.00000  Uiso   1.00
H42    H     0.89781   0.30009   0.95081   0.00000  Uiso   1.00
H43    H     0.89711   0.17766   0.95196   0.00000  Uiso   1.00
H44    H     0.10643   0.23776   0.07802   0.00000  Uiso   1.00
H45    H     0.10757   0.36067   0.07652   0.00000  Uiso   1.00
C46    C     0.38329   0.05206   0.99273   0.00000  Uiso   1.00
C47    C     0.34553   0.00234   1.02932   0.00000  Uiso   1.00
C48    C     0.28603   0.00986   1.03938   0.00000  Uiso   1.00
C49    C     0.26231   0.06674   1.01228   0.00000  Uiso   1.00
C50    C     0.30011   0.11678   0.97589   0.00000  Uiso   1.00
C51    C     0.36024   0.10966   0.96649   0.00000  Uiso   1.00
C52    C     0.44641   0.04340   0.98253   0.00000  Uiso   1.00
N53    N     0.49397   0.09845   0.96639   0.00000  Uiso   1.00
N54    N     0.55122   0.09033   0.95875   0.00000  Uiso   1.00
C55    C     0.56299   0.02674   0.96644   0.00000  Uiso   1.00
N56    N     0.51511  -0.02830  -0.01809   0.00000  Uiso   1.00
N57    N     0.45819  -0.02009  -0.00999   0.00000  Uiso   1.00
C58    C     0.62740   0.01756   0.96073   0.00000  Uiso   1.00
C59    C     0.63223  -0.05009   0.95156   0.00000  Uiso   1.00
C60    C     0.69414  -0.05971   0.95163   0.00000  Uiso   1.00
C61    C     0.75271  -0.00205   0.96164   0.00000  Uiso   1.00
C62    C     0.74760   0.06583   0.96831   0.00000  Uiso   1.00
C63    C     0.68537   0.07566   0.96740   0.00000  Uiso   1.00
H64    H     0.36214   0.95765   0.05063   0.00000  Uiso   1.00
H65    H     0.25794   0.97027   1.06737   0.00000  Uiso   1.00
H66    H     0.28276   0.16088   0.95412   0.00000  Uiso   1.00
H67    H     0.38799   0.14856   0.93772   0.00000  Uiso   1.00
H68    H     0.58842   0.90410  -0.05438   0.00000  Uiso   1.00
H69    H     0.69662   0.88730   0.94633   0.00000  Uiso   1.00
H70    H     0.79203   0.11123   0.97608   0.00000  Uiso   1.00
H71    H     0.68326   0.12855   0.97425   0.00000  Uiso   1.00
C72    C    -0.00302   0.97775   0.37432   0.00000  Uiso   1.00
C73    C     0.05860  -0.00048   0.35634   0.00000  Uiso   1.00
C74    C     0.05891  -0.00109   0.28624   0.00000  Uiso   1.00
C75    C    -0.00243   0.97634   0.23261   0.00000  Uiso   1.00
C76    C    -0.06401   0.95405   0.25059   0.00000  Uiso   1.00
C77    C    -0.06430   0.95475   0.32067   0.00000  Uiso   1.00
C78    C    -0.00341   0.97875   0.44857   0.00000  Uiso   1.00
N79    N    -0.06072   0.94566   0.46742   0.00000  Uiso   1.00
N80    N    -0.06106   0.94655   0.53418   0.00000  Uiso   1.00
C81    C    -0.00414   0.98074   0.58496   0.00000  Uiso   1.00
N82    N     0.05318   0.01374   0.56611   0.00000  Uiso   1.00
N83    N     0.05353   0.01283   0.49935   0.00000  Uiso   1.00
C84    C    -0.00463   0.98208   0.65916   0.00000  Uiso   1.00
C85    C     0.05630   0.00832   0.71266   0.00000  Uiso   1.00
C86    C     0.05588   0.00921   0.78265   0.00000  Uiso   1.00
C87    C    -0.00548   0.98420   0.80072   0.00000  Uiso   1.00
C88    C    -0.06647   0.95842   0.74728   0.00000  Uiso   1.00
C89    C    -0.06602   0.95702   0.67730   0.00000  Uiso   1.00
H90    H     0.10673   0.01672   0.39639   0.00000  Uiso   1.00
H91    H     0.10722   0.01615   0.27414   0.00000  Uiso   1.00
H92    H    -0.11212   0.93663   0.21049   0.00000  Uiso   1.00
H93    H    -0.11265   0.93816   0.33262   0.00000  Uiso   1.00
H94    H     0.10451   0.02771   0.70061   0.00000  Uiso   1.00
H95    H     0.10374   0.02971   0.82262   0.00000  Uiso   1.00
H96    H    -0.11458   0.93870   0.75951   0.00000  Uiso   1.00
H97    H    -0.11390   0.93691   0.63743   0.00000  Uiso   1.00
loop_
_geom_bond_atom_site_label_1
_geom_bond_atom_site_label_2
_geom_bond_distance
_geom_bond_site_symmetry_2
_ccdc_geom_bond_type
C0     O8      1.219   .     D
C0     O9      1.394   1_554 S
C0     C49     1.479   1_554 S
Er1    O11     2.169   .     S
Er1    O13     2.175   .     S
Er1    O15     2.205   1_566 S
Er1    O17     2.173   1_556 S
Er1    O18     2.202   1_565 S
Er1    O19     2.185   1_566 S
Er2    O12     2.167   .     S
Er2    O16     2.170   .     S
Er2    O4      2.166   1_565 S
Er2    O9      2.220   1_564 S
Er2    O10     2.175   1_554 S
C3     O16     1.273   .     A
C3     C75     1.480   .     S
C3     O17     1.273   1_455 A
O4     Er2     2.166   1_545 S
O4     C14     1.268   1_455 A
C5     O12     1.267   .     A
C5     C23     1.479   .     S
C5     O13     1.269   1_454 A
C6     O11     1.274   .     A
C6     O10     1.274   1_655 A
C6     C87     1.479   1_655 S
C7     O18     1.272   .     A
C7     C61     1.475   .     S
C7     O19     1.261   1_556 A
O9     C0      1.394   1_556 S
O9     Er2     2.220   1_546 S
O10    Er2     2.175   1_556 S
O10    C6      1.274   1_455 A
O13    C5      1.269   1_656 A
C14    O15     1.281   .     A
C14    O4      1.268   1_655 A
C14    C35     1.478   1_655 S
O15    Er1     2.205   1_544 S
O17    Er1     2.173   1_554 S
O17    C3      1.273   1_655 A
O18    Er1     2.202   1_545 S
O19    Er1     2.185   1_544 S
O19    C7      1.261   1_554 A
C20    C26     1.482   .     S
C20    C21     1.407   1_554 A
C20    C25     1.406   1_655 A
C21    C22     1.398   .     A
C21    H38     1.082   .     S
C21    C20     1.407   1_556 A
C22    H39     1.084   .     S
C22    C23     1.406   1_656 A
C23    C24     1.406   .     A
C23    C22     1.406   1_454 A
C24    C25     1.398   .     A
C24    H40     1.082   .     S
C25    H41     1.083   .     S
C25    C20     1.406   1_455 A
C26    N27     1.359   .     A
C26    N31     1.360   1_554 A
N27    N28     1.332   .     A
N28    C29     1.360   .     A
C29    C32     1.484   .     S
C29    N30     1.359   1_554 A
N30    N31     1.331   .     A
N30    C29     1.359   1_556 A
N31    C26     1.360   1_556 A
C32    C33     1.406   1_554 A
C32    C37     1.407   1_655 A
C33    C34     1.397   .     A
C33    H42     1.085   .     S
C33    C32     1.406   1_556 A
C34    H43     1.082   .     S
C34    C35     1.405   1_656 A
C35    C36     1.405   .     A
C35    C34     1.405   1_454 A
C35    C14     1.478   1_455 S
C36    C37     1.399   .     A
C36    H44     1.085   .     S
C37    H45     1.082   .     S
C37    C32     1.407   1_455 A
C46    C47     1.405   .     A
C46    C51     1.407   .     A
C46    C52     1.481   .     S
C47    C48     1.395   .     A
C47    H64     1.083   1_546 S
C48    C49     1.405   .     A
C48    H65     1.083   1_545 S
C49    C50     1.406   .     A
C49    C0      1.479   1_556 S
C50    C51     1.400   .     A
C50    H66     1.083   .     S
C51    H67     1.082   .     S
C52    N53     1.360   .     A
C52    N57     1.357   1_556 A
N53    N54     1.333   .     A
N54    C55     1.358   .     A
C55    C58     1.480   .     S
C55    N56     1.358   1_556 A
N56    N57     1.330   .     A
N56    C55     1.358   1_554 A
N57    C52     1.357   1_554 A
C58    C59     1.405   .     A
C58    C63     1.407   .     A
C59    C60     1.395   .     A
C59    H68     1.083   1_546 S
C60    C61     1.403   .     A
C60    H69     1.083   1_545 S
C61    C62     1.403   .     A
C62    C63     1.399   .     A
C62    H70     1.083   .     S
C63    H71     1.084   .     S
H64    C47     1.083   1_564 S
H65    C48     1.083   1_565 S
H68    C59     1.083   1_564 S
H69    C60     1.083   1_565 S
C72    C77     1.406   .     A
C72    C78     1.482   .     S
C72    C73     1.406   1_565 A
C73    C74     1.399   .     A
C73    H90     1.082   .     S
C73    C72     1.406   1_545 A
C74    H91     1.083   .     S
C74    C75     1.406   1_545 A
C75    C76     1.406   .     A
C75    C74     1.406   1_565 A
C76    C77     1.398   .     A
C76    H92     1.083   .     S
C77    H93     1.082   .     S
C78    N79     1.360   .     A
C78    N83     1.360   1_565 A
N79    N80     1.333   .     A
N80    C81     1.360   .     A
C81    C84     1.482   .     S
C81    N82     1.360   1_565 A
N82    N83     1.333   .     A
N82    C81     1.360   1_545 A
N83    C78     1.360   1_545 A
C84    C89     1.407   .     A
C84    C85     1.406   1_565 A
C85    C86     1.397   .     A
C85    H94     1.083   .     S
C85    C84     1.406   1_545 A
C86    H95     1.084   .     S
C86    C87     1.405   1_545 A
C87    C88     1.406   .     A
C87    C86     1.405   1_565 A
C87    C6      1.479   1_455 S
C88    C89     1.398   .     A
C88    H96     1.083   .     S
C89    H97     1.082   .     S
