data_pcu+N505+E35
_audit_creation_date              2023-11-17
_audit_creation_method            'Materials Studio'
_symmetry_space_group_name_H-M    'P1'
_symmetry_Int_Tables_number       1
_symmetry_cell_setting            triclinic
loop_
_symmetry_equiv_pos_as_xyz
  x,y,z
_cell_length_a                    13.2683
_cell_length_b                    18.7190
_cell_length_c                    17.1000
_cell_angle_alpha                 90.8632
_cell_angle_beta                  26.0840
_cell_angle_gamma                 74.9800
loop_
_atom_site_label
_atom_site_type_symbol
_atom_site_fract_x
_atom_site_fract_y
_atom_site_fract_z
_atom_site_U_iso_or_equiv
_atom_site_adp_type
_atom_site_occupancy
Yb0    Yb    1.05292   0.09168  -0.12190   0.00000  Uiso   1.00
Yb1    Yb    0.02102   0.88441   1.05756   0.00000  Uiso   1.00
C2     C     0.03030   0.75128   1.03756   0.00000  Uiso   1.00
O3     O     0.24258   0.00128   0.64882   0.00000  Uiso   1.00
O4     O     0.82641   0.13979   0.93114   0.00000  Uiso   1.00
O5     O     0.83202   0.03926   0.07275   0.00000  Uiso   1.00
O6     O     0.76767   0.93690   1.12816   0.00000  Uiso   1.00
O7     O     1.20105   0.16707   0.75431   0.00000  Uiso   1.00
O8     O     0.84694   0.21427   0.08561   0.00000  Uiso   1.00
O9     O     0.80621   0.99169   0.29108   0.00000  Uiso   1.00
O10    O     0.19825   0.85371   0.04563   0.00000  Uiso   1.00
C11    C     1.03061   0.06431   0.75376   0.00000  Uiso   1.00
O12    O     0.35295   0.02370  -0.23489   0.00000  Uiso   1.00
O13    O     0.28016   0.92339   0.83339   0.00000  Uiso   1.00
O14    O    -0.16708   0.82231   0.21632   0.00000  Uiso   1.00
C15    C     0.75882   0.99404   0.09251   0.00000  Uiso   1.00
O16    O     0.22879   0.75217   0.86682   0.00000  Uiso   1.00
C17    C     1.01726   0.22727  -0.06611   0.00000  Uiso   1.00
C18    C    -0.00774   0.93573   0.21308   0.00000  Uiso   1.00
C19    C     0.35167  -0.02929   0.81143   0.00000  Uiso   1.00
C20    C     0.00240   0.53033   0.02173   0.00000  Uiso   1.00
C21    C     0.78113   0.60733   0.22024   0.00000  Uiso   1.00
C22    C     0.79336   0.67870   0.22409   0.00000  Uiso   1.00
C23    C     0.02345   0.67424   0.03180   0.00000  Uiso   1.00
C24    C     0.23939   0.59660   0.83717   0.00000  Uiso   1.00
N25    N     0.22312   0.52779   0.83730   0.00000  Uiso   1.00
C26    C    -0.00098   0.45309   1.00687   0.00000  Uiso   1.00
N27    N     0.16757   0.39490   0.82908   0.00000  Uiso   1.00
C28    C     0.17622   0.32280   0.80274   0.00000  Uiso   1.00
C29    C     0.00720   0.30590  -0.03810   0.00000  Uiso   1.00
C30    C     0.83475   0.36397   0.14512   0.00000  Uiso   1.00
C31    C     0.83086   0.43726   0.16794   0.00000  Uiso   1.00
H32    H     0.62009   0.73800   0.37846   0.00000  Uiso   1.00
H33    H     0.41967   0.59072   0.68547   0.00000  Uiso   1.00
H34    H     0.31473   0.27900   0.65769   0.00000  Uiso   1.00
H35    H     0.70561   0.35212   0.26946   0.00000  Uiso   1.00
H36    H     0.59635   0.61418   0.37255   0.00000  Uiso   1.00
H37    H     0.70125   0.47943   0.30834   0.00000  Uiso   1.00
C38    C     0.49576   0.99384   0.95175   0.00000  Uiso   1.00
C39    C     0.30471   0.07219   0.04054   0.00000  Uiso   1.00
C40    C     0.25698   0.06323  -0.00422   0.00000  Uiso   1.00
C41    C     0.39785  -0.02311  -0.13706   0.00000  Uiso   1.00
C42    C     0.59626   0.90015   0.76933   0.00000  Uiso   1.00
N43    N     0.63799   0.91043   0.81676   0.00000  Uiso   1.00
C44    C     0.55211   0.99854   0.99657   0.00000  Uiso   1.00
N45    N     0.77200   0.92011   0.87854   0.00000  Uiso   1.00
C46    C     0.84227   0.91794   0.90569   0.00000  Uiso   1.00
C47    C     0.69009  -0.00166   0.05715   0.00000  Uiso   1.00
C48    C     0.45729   0.07964   0.18587   0.00000  Uiso   1.00
C49    C     0.38715   0.08023   0.15645   0.00000  Uiso   1.00
H50    H     0.10908   0.12416   0.06528   0.00000  Uiso   1.00
H51    H     0.71682   0.83247   0.65960   0.00000  Uiso   1.00
H52    H     1.01879   0.85348   0.80761   0.00000  Uiso   1.00
H53    H     0.32834   0.14219   0.31032   0.00000  Uiso   1.00
H54    H     0.19409   0.14001   0.14154   0.00000  Uiso   1.00
H55    H     0.20334   0.14400   0.26098   0.00000  Uiso   1.00
C56    C    -0.03310   0.00897   0.46989   0.00000  Uiso   1.00
C57    C     0.79901   0.07811   0.53179   0.00000  Uiso   1.00
C58    C     0.80528   0.05456   0.44918   0.00000  Uiso   1.00
C59    C    -0.02335  -0.03715   0.30626   0.00000  Uiso   1.00
C60    C     0.14037   0.89607   0.24865   0.00000  Uiso   1.00
N61    N     0.13176   0.92047   0.33028   0.00000  Uiso   1.00
C62    C    -0.02124   1.02746   0.54550   0.00000  Uiso   1.00
N63    N     0.17382   0.95562   0.45568   0.00000  Uiso   1.00
C64    C     0.19753   0.96540   0.51693   0.00000  Uiso   1.00
C65    C     0.01678   0.05175   0.67879   0.00000  Uiso   1.00
C66    C     0.81486   0.12683   0.77343   0.00000  Uiso   1.00
C67    C     0.79464   0.11521   0.70788   0.00000  Uiso   1.00
H68    H     0.68195   0.10791   0.49280   0.00000  Uiso   1.00
H69    H     0.27624   0.82440   0.13815   0.00000  Uiso   1.00
H70    H     0.35416   0.90562   0.44151   0.00000  Uiso   1.00
H71    H     0.67002   0.19470   0.90008   0.00000  Uiso   1.00
H72    H     0.66919   0.14950   0.63779   0.00000  Uiso   1.00
H73    H     0.63238   0.17456   0.78794   0.00000  Uiso   1.00
loop_
_geom_bond_atom_site_label_1
_geom_bond_atom_site_label_2
_geom_bond_distance
_geom_bond_site_symmetry_2
_ccdc_geom_bond_type
Yb0    O5      2.167   .     S
Yb0    O8      2.100   .     S
Yb0    O3      2.107   1_654 S
Yb0    O4      2.084   1_554 S
Yb0    O7      2.095   1_554 S
Yb0    O12     2.164   1_655 S
Yb1    O13     2.181   .     S
Yb1    O16     2.106   .     S
Yb1    O6      2.164   1_455 S
Yb1    O9      2.109   1_456 S
Yb1    O10     2.082   1_556 S
Yb1    O14     2.092   1_556 S
C2     O16     1.293   .     A
C2     O14     1.290   1_556 A
C2     C23     1.476   1_556 S
O3     Yb0     2.107   1_456 S
O3     C11     1.293   1_455 A
O4     C11     1.289   .     A
O4     Yb0     2.084   1_556 S
O5     C15     1.272   1_545 A
O6     Yb1     2.164   1_655 S
O6     C15     1.270   1_556 A
O7     Yb0     2.095   1_556 S
O7     C17     1.291   1_556 A
O8     C17     1.292   .     A
O9     Yb1     2.109   1_654 S
O9     C18     1.294   1_655 A
O10    C18     1.289   .     A
O10    Yb1     2.082   1_554 S
C11    O3      1.293   1_655 A
C11    C65     1.472   1_655 S
O12    Yb0     2.164   1_455 S
O12    C19     1.273   1_554 A
O13    C19     1.277   1_565 A
O14    Yb1     2.092   1_554 S
O14    C2      1.290   1_554 A
C15    O5      1.272   1_565 A
C15    O6      1.270   1_554 A
C15    C47     1.469   1_565 S
C17    O7      1.291   1_554 A
C17    C29     1.475   1_655 S
C18    O9      1.294   1_455 A
C18    C59     1.472   1_565 S
C19    O12     1.273   1_556 A
C19    O13     1.277   1_545 A
C19    C41     1.472   1_556 S
C20    C21     1.406   1_455 A
C20    N25     1.363   1_554 A
C20    C26     1.483   1_554 S
C21    C22     1.395   .     A
C21    H36     1.080   .     S
C21    C20     1.406   1_655 A
C22    H32     1.083   .     S
C22    C23     1.402   1_655 A
C23    C22     1.402   1_455 A
C23    C24     1.402   1_554 A
C23    C2      1.476   1_554 S
C24    N25     1.360   .     A
C24    H33     1.083   .     S
C24    C23     1.402   1_556 A
N25    C20     1.363   1_556 A
C26    N27     1.362   .     A
C26    C20     1.483   1_556 S
C26    C31     1.407   1_456 A
N27    C28     1.359   .     A
C28    H34     1.082   .     S
C28    C29     1.402   1_556 A
C29    C28     1.402   1_554 A
C29    C30     1.401   1_455 A
C29    C17     1.475   1_455 S
C30    C31     1.396   .     A
C30    H35     1.083   .     S
C30    C29     1.401   1_655 A
C31    H37     1.080   .     S
C31    C26     1.407   1_654 A
C38    N43     1.366   .     A
C38    C44     1.488   .     S
C38    C39     1.405   1_566 A
C39    C40     1.392   .     A
C39    H54     1.079   .     S
C39    C38     1.405   1_544 A
C40    C41     1.401   .     A
C40    H50     1.083   .     S
C41    C42     1.399   1_544 A
C41    C19     1.472   1_554 S
C42    N43     1.363   .     A
C42    H51     1.082   .     S
C42    C41     1.399   1_566 A
C44    N45     1.362   .     A
C44    C49     1.412   1_566 A
N45    C46     1.358   .     A
C46    H52     1.083   .     S
C46    C47     1.401   1_566 A
C47    C48     1.397   .     A
C47    C46     1.401   1_544 A
C47    C15     1.469   1_545 S
C48    C49     1.398   .     A
C48    H53     1.083   .     S
C49    H55     1.079   .     S
C49    C44     1.412   1_544 A
C56    C57     1.409   1_455 A
C56    N61     1.360   1_545 A
C56    C62     1.482   1_545 S
C57    C58     1.396   .     A
C57    H72     1.079   .     S
C57    C56     1.409   1_655 A
C58    H68     1.081   .     S
C58    C59     1.400   1_655 A
C59    C58     1.400   1_455 A
C59    C60     1.401   1_545 A
C59    C18     1.472   1_545 S
C60    N61     1.356   .     A
C60    H69     1.082   .     S
C60    C59     1.401   1_565 A
N61    C56     1.360   1_565 A
C62    N63     1.364   .     A
C62    C56     1.482   1_565 S
C62    C67     1.405   1_465 A
N63    C64     1.359   .     A
C64    H70     1.082   .     S
C64    C65     1.399   1_565 A
C65    C64     1.399   1_545 A
C65    C66     1.401   1_455 A
C65    C11     1.472   1_455 S
C66    C67     1.392   .     A
C66    H71     1.083   .     S
C66    C65     1.401   1_655 A
C67    H73     1.079   .     S
C67    C62     1.405   1_645 A
