data_pcu+N205+E70
_audit_creation_date              2023-11-17
_audit_creation_method            'Materials Studio'
_symmetry_space_group_name_H-M    'P1'
_symmetry_Int_Tables_number       1
_symmetry_cell_setting            triclinic
loop_
_symmetry_equiv_pos_as_xyz
  x,y,z
_cell_length_a                    10.8866
_cell_length_b                    12.8984
_cell_length_c                    9.6076
_cell_angle_alpha                 82.8539
_cell_angle_beta                  99.4905
_cell_angle_gamma                 86.6928
loop_
_atom_site_label
_atom_site_type_symbol
_atom_site_fract_x
_atom_site_fract_y
_atom_site_fract_z
_atom_site_U_iso_or_equiv
_atom_site_adp_type
_atom_site_occupancy
Y0     Y     0.05700   0.15404  -0.00148   0.00000  Uiso   1.00
Y1     Y     0.92553   0.90346   1.01093   0.00000  Uiso   1.00
C2     C     0.68295   0.88196   1.02690   0.00000  Uiso   1.00
C3     C     0.90816   0.06503   0.22145   0.00000  Uiso   1.00
C4     C     0.12988   0.34308   0.05232   0.00000  Uiso   1.00
C5     C     0.25095   0.00812   0.03382   0.00000  Uiso   1.00
C6     C    -0.08733   1.07124   0.73217   0.00000  Uiso   1.00
C7     C     1.06738   0.72096   1.04900   0.00000  Uiso   1.00
O8     O     0.71919   0.95821   0.95310   0.00000  Uiso   1.00
O9     O     0.77083   0.81511   0.08510   0.00000  Uiso   1.00
O10    O     0.89810   0.13626   0.11657   0.00000  Uiso   1.00
O11    O     0.96046   0.97556   0.21580   0.00000  Uiso   1.00
O12    O     0.09301   0.32206   0.92818   0.00000  Uiso   1.00
O13    O     0.13026   0.26649   0.14743   0.00000  Uiso   1.00
O14    O     0.17695   0.01351   0.12111   0.00000  Uiso   1.00
O15    O     0.22173   0.07560   0.92449   0.00000  Uiso   1.00
O16    O    -0.05072   0.97780   0.79033   0.00000  Uiso   1.00
O17    O    -0.08099   0.14850   0.80199   0.00000  Uiso   1.00
O18    O     1.09556   0.79710   0.11545   0.00000  Uiso   1.00
O19    O     0.96820   0.74081   0.95839   0.00000  Uiso   1.00
N20    N     0.09685   0.53486   1.02012   0.00000  Uiso   1.00
H21    H     1.27638   0.64643   0.25967   0.00000  Uiso   1.00
C22    C     1.13681   0.61739   0.08179   0.00000  Uiso   1.00
C23    C     1.23517   0.59135   0.19336   0.00000  Uiso   1.00
C24    C     1.16457   0.44629   0.08507   0.00000  Uiso   1.00
S25    S     1.27886   0.46042   0.22538   0.00000  Uiso   1.00
N26    N     0.46248  -0.05016   0.99896   0.00000  Uiso   1.00
H27    H     0.31323   0.82799   0.23424   0.00000  Uiso   1.00
C28    C     0.36230   0.93385   0.06138   0.00000  Uiso   1.00
C29    C     0.38029   0.84888   0.16644   0.00000  Uiso   1.00
C30    C     0.55521   0.87504   0.05482   0.00000  Uiso   1.00
S31    S     0.52314   0.78304   0.18595   0.00000  Uiso   1.00
N32    N    -0.08753   1.04393   0.48203   0.00000  Uiso   1.00
H33    H     0.72924   0.22111   0.25058   0.00000  Uiso   1.00
C34    C     0.86265   0.08998   0.35000   0.00000  Uiso   1.00
C35    C     0.77675   0.17330   0.34719   0.00000  Uiso   1.00
C36    C     0.86442   0.09349   0.57900   0.00000  Uiso   1.00
S37    S     0.75679   0.19743   0.51201   0.00000  Uiso   1.00
loop_
_geom_bond_atom_site_label_1
_geom_bond_atom_site_label_2
_geom_bond_distance
_geom_bond_site_symmetry_2
_ccdc_geom_bond_type
Y0     O13     2.249   .     S
Y0     O14     2.251   .     S
Y0     O10     2.227   1_455 S
Y0     O12     2.264   1_554 S
Y0     O15     2.266   1_554 S
Y0     O17     2.222   1_554 S
Y1     O8      2.272   .     S
Y1     O19     2.258   .     S
Y1     O9      2.249   1_556 S
Y1     O11     2.266   1_556 S
Y1     O16     2.276   1_655 S
Y1     O18     2.251   1_556 S
C2     O8      1.261   .     A
C2     O9      1.257   1_556 A
C2     C30     1.465   1_556 S
C3     O10     1.262   .     A
C3     C34     1.469   .     S
C3     O11     1.268   1_545 A
C4     O13     1.259   .     A
C4     O12     1.262   1_554 A
C4     C24     1.462   1_455 S
C5     O14     1.260   .     A
C5     O15     1.262   1_554 A
C5     C28     1.468   1_545 S
C6     O16     1.276   .     A
C6     O17     1.268   1_565 A
C6     C36     1.465   1_465 S
C7     O19     1.262   .     A
C7     O18     1.262   1_556 A
C7     C22     1.468   1_556 S
O9     Y1      2.249   1_554 S
O9     C2      1.257   1_554 A
O10    Y0      2.227   1_655 S
O11    Y1      2.266   1_554 S
O11    C3      1.268   1_565 A
O12    Y0      2.264   1_556 S
O12    C4      1.262   1_556 A
O15    Y0      2.266   1_556 S
O15    C5      1.262   1_556 A
O16    Y1      2.276   1_455 S
O17    Y0      2.222   1_556 S
O17    C6      1.268   1_545 A
O18    Y1      2.251   1_554 S
O18    C7      1.262   1_554 A
N20    C22     1.341   1_456 A
N20    C24     1.346   1_456 A
H21    C23     1.080   .     S
C22    C23     1.378   .     A
C22    N20     1.341   1_654 A
C22    C7      1.468   1_554 S
C23    S25     1.704   .     A
C24    S25     1.713   .     A
C24    N20     1.346   1_654 A
C24    C4      1.462   1_655 S
N26    C28     1.343   1_546 A
N26    C30     1.348   1_546 A
H27    C29     1.080   .     S
C28    C29     1.376   .     A
C28    N26     1.343   1_564 A
C28    C5      1.468   1_565 S
C29    S31     1.699   .     A
C30    S31     1.714   .     A
C30    N26     1.348   1_564 A
C30    C2      1.465   1_554 S
N32    C34     1.343   1_465 A
N32    C36     1.349   1_465 A
H33    C35     1.082   .     S
C34    C35     1.378   .     A
C34    N32     1.343   1_645 A
C35    S37     1.697   .     A
C36    S37     1.715   .     A
C36    N32     1.349   1_645 A
C36    C6      1.465   1_645 S
