data_pcu+N155+E183
_audit_creation_date              2023-11-17
_audit_creation_method            'Materials Studio'
_symmetry_space_group_name_H-M    'P1'
_symmetry_Int_Tables_number       1
_symmetry_cell_setting            triclinic
loop_
_symmetry_equiv_pos_as_xyz
  x,y,z
_cell_length_a                    12.6717
_cell_length_b                    13.2363
_cell_length_c                    15.6636
_cell_angle_alpha                 90.0299
_cell_angle_beta                  85.7357
_cell_angle_gamma                 89.9223
loop_
_atom_site_label
_atom_site_type_symbol
_atom_site_fract_x
_atom_site_fract_y
_atom_site_fract_z
_atom_site_U_iso_or_equiv
_atom_site_adp_type
_atom_site_occupancy
C0     C    -0.00007   0.00018   0.25670   0.00000  Uiso   1.00
Ho1    Ho   -0.00065   0.00015   0.09111   0.00000  Uiso   1.00
C2     C     1.00028   1.00003   0.74349   0.00000  Uiso   1.00
Ho3    Ho    1.00087   1.00007   0.90909   0.00000  Uiso   1.00
O4     O     0.08526   0.00011   0.20709   0.00000  Uiso   1.00
O5     O     0.91504   0.00027   0.21735   0.00000  Uiso   1.00
O6     O     0.16188   0.00000   0.12914   0.00000  Uiso   1.00
O7     O     0.12820   0.99996   0.99331   0.00000  Uiso   1.00
C8     C     0.20220  -0.00004   1.05526   0.00000  Uiso   1.00
C9     C     0.79801   1.00027  -0.05506   0.00000  Uiso   1.00
O10    O     0.00077   0.83511   0.07338   0.00000  Uiso   1.00
O11    O     0.99951   0.83504   0.92679   0.00000  Uiso   1.00
O12    O     0.91495   1.00012   0.79311   0.00000  Uiso   1.00
O13    O     0.08517   0.99994   0.78284   0.00000  Uiso   1.00
O14    O     0.83833   1.00024   0.87106   0.00000  Uiso   1.00
O15    O     0.87202   0.00023   0.00689   0.00000  Uiso   1.00
O16    O     0.99946   0.16510   0.92681   0.00000  Uiso   1.00
O17    O     0.00069   0.16518   0.07341   0.00000  Uiso   1.00
C18    C     1.00008   0.21125   1.00011   0.00000  Uiso   1.00
C19    C     0.00013   0.78897   0.00008   0.00000  Uiso   1.00
C20    C     0.00012   0.67770   0.00009   0.00000  Uiso   1.00
C21    C    -0.00135   0.50008   0.95691   0.00000  Uiso   1.00
C22    C     1.00153   0.50014   0.04329   0.00000  Uiso   1.00
S23    S    -0.00313   0.38767   0.90541   0.00000  Uiso   1.00
S24    S     1.00327   0.38779   0.09481   0.00000  Uiso   1.00
S25    S    -0.00313   0.61242   0.90540   0.00000  Uiso   1.00
S26    S     1.00323   0.61255   0.09481   0.00000  Uiso   1.00
C27    C     1.00009   0.32252   1.00011   0.00000  Uiso   1.00
C28    C     0.31686  -0.00007   0.03430   0.00000  Uiso   1.00
C29    C     0.49177   0.00047   0.95779   0.00000  Uiso   1.00
C30    C     0.50844   0.99972   0.04241   0.00000  Uiso   1.00
S31    S     0.59814   0.00103   0.88563   0.00000  Uiso   1.00
S32    S     0.63468   0.99939   0.07110   0.00000  Uiso   1.00
S33    S     0.36553   0.00077   0.92911   0.00000  Uiso   1.00
S34    S     0.40207   0.99916   0.11458   0.00000  Uiso   1.00
C35    C     0.68335   1.00028   0.96590   0.00000  Uiso   1.00
C36    C    -0.00006   1.00015   0.35037   0.00000  Uiso   1.00
C37    C     0.94640   1.00003   0.50337   0.00000  Uiso   1.00
C38    C     0.05381   0.00008   0.49684   0.00000  Uiso   1.00
S39    S     0.88249   0.99999   0.60224   0.00000  Uiso   1.00
S40    S     0.11793   0.00012   0.58791   0.00000  Uiso   1.00
S41    S     0.88227   1.00003   0.41229   0.00000  Uiso   1.00
S42    S     0.11771   0.00017   0.39796   0.00000  Uiso   1.00
C43    C     1.00027   0.00002   0.64983   0.00000  Uiso   1.00
loop_
_geom_bond_atom_site_label_1
_geom_bond_atom_site_label_2
_geom_bond_distance
_geom_bond_site_symmetry_2
_ccdc_geom_bond_type
C0     O4      1.284   .     A
C0     O5      1.279   1_455 A
C0     C36     1.467   1_545 S
Ho1    O4      2.186   .     S
Ho1    O6      2.186   .     S
Ho1    O17     2.202   .     S
Ho1    O5      2.177   1_455 S
Ho1    O7      2.154   1_544 S
Ho1    O10     2.202   1_545 S
Ho1    O15     2.159   1_455 S
C2     O12     1.284   .     A
C2     O13     1.279   1_655 A
C2     C43     1.467   1_565 S
Ho3    O11     2.202   .     S
Ho3    O12     2.186   .     S
Ho3    O14     2.186   .     S
Ho3    O7      2.159   1_655 S
Ho3    O13     2.177   1_655 S
Ho3    O15     2.154   1_566 S
Ho3    O16     2.202   1_565 S
O5     C0      1.279   1_655 A
O5     Ho1     2.177   1_655 S
O6     C8      1.230   1_554 D
O7     Ho1     2.154   1_566 S
O7     Ho3     2.159   1_455 S
O7     C8      1.399   1_565 S
C8     O6      1.230   1_556 D
C8     O7      1.399   1_545 S
C8     C28     1.466   1_556 S
C9     O14     1.230   1_554 D
C9     O15     1.399   1_565 S
C9     C35     1.466   1_554 S
O10    C19     1.301   .     A
O10    Ho1     2.202   1_565 S
O11    C19     1.301   1_656 A
O13    C2      1.279   1_455 A
O13    Ho3     2.177   1_455 S
O14    C9      1.230   1_556 D
O15    Ho1     2.159   1_655 S
O15    Ho3     2.154   1_544 S
O15    C9      1.399   1_545 S
O16    C18     1.301   .     A
O16    Ho3     2.202   1_545 S
O17    C18     1.301   1_454 A
C18    C27     1.473   .     S
C18    O17     1.301   1_656 A
C19    C20     1.473   .     S
C19    O11     1.301   1_454 A
C20    S25     1.719   1_554 A
C20    S26     1.719   1_455 A
C21    S23     1.693   .     A
C21    S25     1.693   .     A
C21    C22     1.356   1_456 A
C22    S24     1.693   .     A
C22    S26     1.693   .     A
C22    C21     1.356   1_654 A
S23    C27     1.719   1_455 A
S24    C27     1.719   1_554 A
S25    C20     1.719   1_556 A
S26    C20     1.719   1_655 A
C27    S23     1.719   1_655 A
C27    S24     1.719   1_556 A
C28    S33     1.716   1_554 A
C28    S34     1.717   1_545 A
C28    C8      1.466   1_554 S
C29    S31     1.694   .     A
C29    S33     1.693   .     A
C29    C30     1.358   1_546 A
C30    S32     1.693   .     A
C30    S34     1.694   .     A
C30    C29     1.358   1_564 A
S31    C35     1.717   1_545 A
S32    C35     1.716   1_554 A
S33    C28     1.716   1_556 A
S34    C28     1.717   1_565 A
C35    S31     1.717   1_565 A
C35    S32     1.716   1_556 A
C35    C9      1.466   1_556 S
C36    S41     1.717   1_455 A
C36    S42     1.717   1_565 A
C36    C0      1.467   1_565 S
C37    S39     1.693   .     A
C37    S41     1.693   .     A
C37    C38     1.357   1_665 A
C38    S40     1.693   .     A
C38    S42     1.694   .     A
C38    C37     1.357   1_445 A
S39    C43     1.717   1_565 A
S40    C43     1.717   1_455 A
S41    C36     1.717   1_655 A
S42    C36     1.717   1_545 A
C43    S39     1.717   1_545 A
C43    S40     1.717   1_655 A
C43    C2      1.467   1_545 S
