data_pcu+N106+E220
_audit_creation_date              2023-11-17
_audit_creation_method            'Materials Studio'
_symmetry_space_group_name_H-M    'P1'
_symmetry_Int_Tables_number       1
_symmetry_cell_setting            triclinic
loop_
_symmetry_equiv_pos_as_xyz
  x,y,z
_cell_length_a                    14.3127
_cell_length_b                    11.3881
_cell_length_c                    10.0134
_cell_angle_alpha                 74.1125
_cell_angle_beta                  67.7811
_cell_angle_gamma                 86.9184
loop_
_atom_site_label
_atom_site_type_symbol
_atom_site_fract_x
_atom_site_fract_y
_atom_site_fract_z
_atom_site_U_iso_or_equiv
_atom_site_adp_type
_atom_site_occupancy
Y0     Y     0.88201   0.02233   0.01340   0.00000  Uiso   1.00
Y1     Y     0.11710   1.01111   0.95909   0.00000  Uiso   1.00
O2     O     0.92767   0.22092  -0.04502   0.00000  Uiso   1.00
O3     O     1.02819   0.09378   0.81658   0.00000  Uiso   1.00
C4     C     0.30002   1.01624   0.97770   0.00000  Uiso   1.00
O5     O     0.14007   0.96927   0.74018   0.00000  Uiso   1.00
O6     O     0.71316  -0.01794   0.12307   0.00000  Uiso   1.00
O7     O     0.77600   0.05622   0.88938   0.00000  Uiso   1.00
O8     O     0.07254   0.19814   0.99610   0.00000  Uiso   1.00
O9     O    -0.02887   0.93737   0.15457   0.00000  Uiso   1.00
O10    O     0.86008   0.06067   0.23429   0.00000  Uiso   1.00
O11    O     0.92624   0.83659  -0.02467   0.00000  Uiso   1.00
C12    C     0.00056   0.26386   0.97580   0.00000  Uiso   1.00
O13    O     0.07210   0.81170   1.01266   0.00000  Uiso   1.00
C14    C     0.07101   1.02580   0.71665   0.00000  Uiso   1.00
O15    O     0.28521   1.05860   0.85730   0.00000  Uiso   1.00
O16    O     0.22020   0.96956   0.08715   0.00000  Uiso   1.00
C17    C     0.69644   0.01842   0.00372   0.00000  Uiso   1.00
C18    C     0.99802   0.76971  -0.00687   0.00000  Uiso   1.00
C19    C     0.92783   0.00153   0.25844   0.00000  Uiso   1.00
C20    C    -0.00438   0.63972  -0.00969   0.00000  Uiso   1.00
C21    C     0.92247   0.59021  -0.04648   0.00000  Uiso   1.00
C22    C     0.92646   0.46884  -0.05358   0.00000  Uiso   1.00
C23    C     0.00082   0.39359   0.97737   0.00000  Uiso   1.00
C24    C     0.07302   0.44248   1.01371   0.00000  Uiso   1.00
C25    C     0.07047   0.56373   1.01995   0.00000  Uiso   1.00
O26    O     0.83497   0.67643  -0.20528   0.00000  Uiso   1.00
O27    O     0.76776   0.68463   0.03376   0.00000  Uiso   1.00
N28    N     0.84321   0.66066  -0.07661   0.00000  Uiso   1.00
H29    H     0.13125   0.38675   1.03860   0.00000  Uiso   1.00
H30    H     0.12765   0.59791   1.04833   0.00000  Uiso   1.00
H31    H     0.86961   0.43299  -0.08132   0.00000  Uiso   1.00
C32    C     0.40017   1.02042   0.98840   0.00000  Uiso   1.00
C33    C     0.41127  -0.00124   1.12794   0.00000  Uiso   1.00
C34    C     0.50858  -0.00509   1.13143   0.00000  Uiso   1.00
C35    C     0.59486   1.01763  -0.00145   0.00000  Uiso   1.00
C36    C     0.58340   1.04258  -0.13923   0.00000  Uiso   1.00
C37    C     0.48719   1.04323  -0.14412   0.00000  Uiso   1.00
O38    O     0.32416  -0.09225   1.38801   0.00000  Uiso   1.00
O39    O     0.25985   0.07090   1.27543   0.00000  Uiso   1.00
N40    N     0.32559  -0.01304   1.26565   0.00000  Uiso   1.00
H41    H     0.64895   1.06068  -0.24337   0.00000  Uiso   1.00
H42    H     0.48091   1.06055  -0.25222   0.00000  Uiso   1.00
H43    H     0.51674  -0.02137   1.23817   0.00000  Uiso   1.00
C44    C     0.95991   0.00036   0.38277   0.00000  Uiso   1.00
C45    C     0.01966   0.90797   0.43112   0.00000  Uiso   1.00
C46    C     0.05849   0.91987   0.53654   0.00000  Uiso   1.00
C47    C     0.03561   0.01911   0.59877   0.00000  Uiso   1.00
C48    C     0.97314   0.10735   0.55520   0.00000  Uiso   1.00
C49    C     0.93640   0.09866   0.44733   0.00000  Uiso   1.00
O50    O     0.12354   0.74827   0.36141   0.00000  Uiso   1.00
O51    O     0.96248   0.73855   0.38230   0.00000  Uiso   1.00
N52    N     0.03755   0.79922   0.38075   0.00000  Uiso   1.00
H53    H     0.95361   0.18390   0.60342   0.00000  Uiso   1.00
H54    H     0.89087   0.17036   0.41223   0.00000  Uiso   1.00
H55    H     0.10344   0.84882   0.57453   0.00000  Uiso   1.00
loop_
_geom_bond_atom_site_label_1
_geom_bond_atom_site_label_2
_geom_bond_distance
_geom_bond_site_symmetry_2
_ccdc_geom_bond_type
Y0     O2      2.243   .     S
Y0     O6      2.257   .     S
Y0     O10     2.274   .     S
Y0     O3      2.261   1_554 S
Y0     O7      2.257   1_554 S
Y0     O9      2.246   1_645 S
Y0     O11     2.266   1_545 S
Y1     O5      2.269   .     S
Y1     O13     2.256   .     S
Y1     O15     2.259   .     S
Y1     O3      2.247   1_465 S
Y1     O8      2.278   1_565 S
Y1     O9      2.258   1_556 S
Y1     O16     2.252   1_556 S
O2     C12     1.283   1_654 A
O3     Y0      2.261   1_556 S
O3     Y1      2.247   1_645 S
O3     C14     1.373   1_645 S
C4     O15     1.263   .     A
C4     C32     1.481   .     S
C4     O16     1.260   1_556 A
O5     C14     1.213   .     D
O6     C17     1.262   .     A
O7     Y0      2.257   1_556 S
O7     C17     1.261   1_556 A
O8     C12     1.286   .     A
O8     Y1      2.278   1_545 S
O9     Y0      2.246   1_465 S
O9     Y1      2.258   1_554 S
O9     C19     1.371   1_465 S
O10    C19     1.213   .     D
O11    C18     1.284   .     A
O11    Y0      2.266   1_565 S
C12    C23     1.482   .     S
C12    O2      1.283   1_456 A
O13    C18     1.286   1_456 A
C14    O3      1.373   1_465 S
C14    C47     1.470   1_565 S
O16    Y1      2.252   1_554 S
O16    C4      1.260   1_554 A
C17    O7      1.261   1_554 A
C17    C35     1.475   1_545 S
C18    O13     1.286   1_654 A
C18    C20     1.491   1_655 S
C19    C44     1.478   .     S
C19    O9      1.371   1_645 S
C20    C21     1.421   1_455 A
C20    C25     1.409   1_554 A
C20    C18     1.491   1_455 S
C21    C22     1.400   .     A
C21    N28     1.432   .     S
C21    C20     1.421   1_655 A
C22    H31     1.084   .     S
C22    C23     1.403   1_654 A
C23    C24     1.403   .     A
C23    C22     1.403   1_456 A
C24    C25     1.397   .     A
C24    H29     1.083   .     S
C25    H30     1.083   .     S
C25    C20     1.409   1_556 A
O26    N28     1.301   .     A
O27    N28     1.301   .     A
C32    C33     1.419   1_565 A
C32    C37     1.406   1_556 A
C33    C34     1.404   .     A
C33    N40     1.436   .     S
C33    C32     1.419   1_545 A
C34    H43     1.083   .     S
C34    C35     1.402   1_546 A
C35    C36     1.401   .     A
C35    C34     1.402   1_564 A
C35    C17     1.475   1_565 S
C36    C37     1.396   .     A
C36    H41     1.083   .     S
C37    H42     1.083   .     S
C37    C32     1.406   1_554 A
O38    N40     1.301   .     A
O39    N40     1.301   .     A
C44    C49     1.405   .     A
C44    C45     1.418   1_645 A
C45    C46     1.404   .     A
C45    N52     1.437   .     S
C45    C44     1.418   1_465 A
C46    H55     1.084   .     S
C46    C47     1.402   1_565 A
C47    C46     1.402   1_545 A
C47    C48     1.399   1_455 A
C47    C14     1.470   1_545 S
C48    C49     1.395   .     A
C48    H53     1.083   .     S
C48    C47     1.399   1_655 A
C49    H54     1.083   .     S
O50    N52     1.301   .     A
O51    N52     1.301   1_655 A
N52    O51     1.301   1_455 A
