data_pcu+N173+E191
_audit_creation_date              2023-11-17
_audit_creation_method            'Materials Studio'
_symmetry_space_group_name_H-M    'P1'
_symmetry_Int_Tables_number       1
_symmetry_cell_setting            triclinic
loop_
_symmetry_equiv_pos_as_xyz
  x,y,z
_cell_length_a                    16.4598
_cell_length_b                    20.5134
_cell_length_c                    16.3294
_cell_angle_alpha                 123.3835
_cell_angle_beta                  69.0168
_cell_angle_gamma                 57.6796
loop_
_atom_site_label
_atom_site_type_symbol
_atom_site_fract_x
_atom_site_fract_y
_atom_site_fract_z
_atom_site_U_iso_or_equiv
_atom_site_adp_type
_atom_site_occupancy
Gd0    Gd    0.24764   0.70201   0.74937   0.00000  Uiso   1.00
Gd1    Gd    0.74972   0.30052   0.25384   0.00000  Uiso   1.00
O2     O     0.65569   0.25536   0.21841   0.00000  Uiso   1.00
O3     O     0.82238   1.05925   1.13095   0.00000  Uiso   1.00
O4     O     1.23288   0.72947   0.63532   0.00000  Uiso   1.00
O5     O     0.13380  -0.06276   0.81844   0.00000  Uiso   1.00
O6     O     0.24944   0.64253   0.82808   0.00000  Uiso   1.00
O7     O     1.17878   0.63351   0.73874   0.00000  Uiso   1.00
O8     O     0.34260   0.74641   0.78362   0.00000  Uiso   1.00
C9     C     0.20050   0.61655   0.79730   0.00000  Uiso   1.00
O10    O     0.17414  -0.05586  -0.12687   0.00000  Uiso   1.00
O11    O    -0.13619   1.06500   0.18445   0.00000  Uiso   1.00
C12    C     1.17033  -0.15600   0.69914   0.00000  Uiso   1.00
O13    O     0.76507   0.27251   0.36729   0.00000  Uiso   1.00
O14    O     0.74859   0.35996   1.17512   0.00000  Uiso   1.00
O15    O    -0.18044   0.36821   0.26413   0.00000  Uiso   1.00
C16    C     0.71622   0.14237   0.15639   0.00000  Uiso   1.00
C17    C     0.79787   0.38550   0.20578   0.00000  Uiso   1.00
C18    C    -0.17265   1.15819   0.30369   0.00000  Uiso   1.00
C19    C     0.28184   0.85963   0.84596   0.00000  Uiso   1.00
Ni20   Ni    0.00228   0.49842   0.99894   0.00000  Uiso   1.00
C21    C     1.16693   0.57482   0.83162   0.00000  Uiso   1.00
C22    C     1.11256   0.54820   0.79673   0.00000  Uiso   1.00
C23    C     1.06794   0.52105   0.84391   0.00000  Uiso   1.00
C24    C     0.13145   0.54400  -0.04374   0.00000  Uiso   1.00
C25    C     0.17857   0.57047  -0.08994   0.00000  Uiso   1.00
H26    H     0.76628   0.42314   1.07684   0.00000  Uiso   1.00
H27    H    -0.08936   0.43817   0.25287   0.00000  Uiso   1.00
H28    H    -0.00695   0.48305   0.16589   0.00000  Uiso   1.00
H29    H     0.84993   0.47017   0.99587   0.00000  Uiso   1.00
N30    N    -0.07182   0.47570   0.07409   0.00000  Uiso   1.00
N31    N     1.07538   0.52206   0.92478   0.00000  Uiso   1.00
H32    H     1.10253   0.55030   0.73588   0.00000  Uiso   1.00
H33    H     1.02339   0.50266   0.82005   0.00000  Uiso   1.00
H34    H     0.13643   0.54364   0.02033   0.00000  Uiso   1.00
H35    H     0.22055   0.59003  -0.06161   0.00000  Uiso   1.00
C36    C    -0.16761   0.42661   0.17100   0.00000  Uiso   1.00
C37    C    -0.10503   0.44561   0.19780   0.00000  Uiso   1.00
C38    C    -0.05819   0.47087   0.14866   0.00000  Uiso   1.00
C39    C     0.86235   0.46284   1.05236   0.00000  Uiso   1.00
C40    C     0.81444   0.43698   1.09908   0.00000  Uiso   1.00
Ni41   Ni    0.50110  -0.00069   0.99872   0.00000  Uiso   1.00
C42    C     0.34744   0.88217   0.87056   0.00000  Uiso   1.00
C43    C     0.34656  -0.05157   0.86497   0.00000  Uiso   1.00
C44    C     0.39616  -0.01955   0.90151   0.00000  Uiso   1.00
C45    C     0.45538   0.87651  -0.05946   0.00000  Uiso   1.00
C46    C     0.40712   0.84209  -0.09568   0.00000  Uiso   1.00
H47    H     0.58990   0.21028   1.09125   0.00000  Uiso   1.00
H48    H     0.69555   1.02162   0.16337   0.00000  Uiso   1.00
H49    H     0.61270   0.96131   0.09335   0.00000  Uiso   1.00
H50    H     0.50342   0.15042   1.02828   0.00000  Uiso   1.00
N51    N     0.55570   1.05198   1.05649   0.00000  Uiso   1.00
N52    N     0.44695  -0.05380   0.94055   0.00000  Uiso   1.00
H53    H     0.30850  -0.02521   0.83207   0.00000  Uiso   1.00
H54    H     0.39249   0.03432   0.90069   0.00000  Uiso   1.00
H55    H     0.49756   0.84953  -0.02915   0.00000  Uiso   1.00
H56    H     0.41047   0.79008  -0.09116   0.00000  Uiso   1.00
C57    C     0.65420   0.11672   0.12785   0.00000  Uiso   1.00
C58    C     0.65588   1.04961   0.13229   0.00000  Uiso   1.00
C59    C     0.60787   1.01630   0.09396   0.00000  Uiso   1.00
C60    C     0.54632   0.12264   1.05774   0.00000  Uiso   1.00
C61    C     0.59521   0.15644   1.09350   0.00000  Uiso   1.00
Ni62   Ni    1.00324  -0.00297   0.49674   0.00000  Uiso   1.00
C63    C     0.84970   0.13771   0.37156   0.00000  Uiso   1.00
C64    C     0.88790   0.17444   0.42794   0.00000  Uiso   1.00
C65    C     0.93202   0.13278   0.46755   0.00000  Uiso   1.00
C66    C    -0.11523   1.03493   0.41410   0.00000  Uiso   1.00
C67    C    -0.15842   1.07306   0.37181   0.00000  Uiso   1.00
H68    H     1.17973  -0.03620   0.67882   0.00000  Uiso   1.00
H69    H     0.11424   0.76748   0.56156   0.00000  Uiso   1.00
H70    H     0.04367   0.83468   0.48395   0.00000  Uiso   1.00
H71    H     1.10457   0.02934   0.60243   0.00000  Uiso   1.00
N72    N     0.07292   0.93321   0.53778   0.00000  Uiso   1.00
N73    N     0.93275   0.06169   0.45664   0.00000  Uiso   1.00
H74    H     0.89471   0.22491   0.43004   0.00000  Uiso   1.00
H75    H     0.97015   0.15321   0.50251   0.00000  Uiso   1.00
H76    H    -0.11578   0.98026   0.40889   0.00000  Uiso   1.00
H77    H    -0.19341   1.04829   0.33519   0.00000  Uiso   1.00
C78    C     0.14812   0.86434   0.63110   0.00000  Uiso   1.00
C79    C     0.11726   0.82121   0.56740   0.00000  Uiso   1.00
C80    C     0.07866   0.85788   0.52204   0.00000  Uiso   1.00
C81    C     1.10952  -0.03002   0.59184   0.00000  Uiso   1.00
C82    C     1.15002  -0.06565   0.63695   0.00000  Uiso   1.00
loop_
_geom_bond_atom_site_label_1
_geom_bond_atom_site_label_2
_geom_bond_distance
_geom_bond_site_symmetry_2
_ccdc_geom_bond_type
Gd0    O6      2.204   .     S
Gd0    O8      2.274   .     S
Gd0    O3      2.277   1_455 S
Gd0    O4      2.275   1_455 S
Gd0    O7      2.206   1_455 S
Gd0    O11     2.273   1_556 S
Gd1    O2      2.274   .     S
Gd1    O13     2.275   .     S
Gd1    O5      2.275   1_654 S
Gd1    O10     2.273   1_655 S
Gd1    O14     2.204   1_554 S
Gd1    O15     2.206   1_655 S
O2     C16     1.271   .     A
O3     Gd0     2.277   1_655 S
O3     C16     1.284   1_566 A
O4     Gd0     2.275   1_655 S
O4     C12     1.271   1_565 A
O5     Gd1     2.275   1_456 S
O5     C12     1.283   1_455 A
O6     C9      1.280   .     A
O7     Gd0     2.206   1_655 S
O7     C9      1.281   1_655 A
O8     C19     1.271   .     A
C9     O7      1.281   1_455 A
C9     C21     1.471   1_455 S
O10    Gd1     2.273   1_455 S
O10    C19     1.284   1_544 A
O11    C18     1.283   .     A
O11    Gd0     2.273   1_554 S
C12    O4      1.271   1_545 A
C12    O5      1.283   1_655 A
C12    C78     1.477   1_645 S
O13    C18     1.271   1_645 A
O14    Gd1     2.204   1_556 S
O14    C17     1.280   1_556 A
O15    Gd1     2.206   1_455 S
O15    C17     1.281   1_455 A
C16    C57     1.477   .     S
C16    O3      1.284   1_544 A
C17    O14     1.280   1_554 A
C17    O15     1.281   1_655 A
C17    C36     1.471   1_655 S
C18    O13     1.271   1_465 A
C18    C63     1.476   1_465 S
C19    C42     1.477   .     S
C19    O10     1.284   1_566 A
Ni20   N30     1.838   1_556 S
Ni20   N31     1.837   1_455 S
C21    C22     1.403   .     A
C21    C25     1.403   1_656 A
C21    C9      1.471   1_655 S
C22    C23     1.396   .     A
C22    H32     1.083   .     S
C23    N31     1.359   .     A
C23    H33     1.082   .     S
C24    C25     1.396   .     A
C24    H34     1.082   .     S
C24    N31     1.359   1_454 A
C25    H35     1.083   .     S
C25    C21     1.403   1_454 A
H26    C40     1.084   .     S
H27    C37     1.083   .     S
H28    C38     1.082   .     S
H29    C39     1.082   .     S
N30    C38     1.359   .     A
N30    Ni20    1.838   1_554 S
N30    C39     1.359   1_454 A
N31    Ni20    1.837   1_655 S
N31    C24     1.359   1_656 A
C36    C37     1.403   .     A
C36    C40     1.403   1_454 A
C36    C17     1.471   1_455 S
C37    C38     1.396   .     A
C39    C40     1.395   .     A
C39    N30     1.359   1_656 A
C40    C36     1.403   1_656 A
Ni41   N52     1.841   .     S
Ni41   N51     1.841   1_545 S
C42    C43     1.404   1_565 A
C42    C46     1.403   1_556 A
C43    C44     1.395   .     A
C43    H53     1.082   .     S
C43    C42     1.404   1_545 A
C44    N52     1.358   .     A
C44    H54     1.082   .     S
C45    C46     1.399   .     A
C45    H55     1.082   .     S
C45    N52     1.360   1_564 A
C46    H56     1.083   .     S
C46    C42     1.403   1_554 A
H47    C61     1.083   .     S
H48    C58     1.082   .     S
H49    C59     1.082   .     S
H50    C60     1.082   .     S
N51    Ni41    1.841   1_565 S
N51    C59     1.358   1_556 A
N51    C60     1.361   1_565 A
N52    C45     1.360   1_546 A
C57    C58     1.404   1_545 A
C57    C61     1.403   1_554 A
C58    C59     1.394   .     A
C58    C57     1.404   1_565 A
C59    N51     1.358   1_554 A
C60    C61     1.399   .     A
C60    N51     1.361   1_545 A
C61    C57     1.403   1_556 A
Ni62   N73     1.841   .     S
Ni62   N72     1.841   1_645 S
C63    C64     1.403   .     A
C63    C67     1.404   1_645 A
C63    C18     1.476   1_645 S
C64    C65     1.399   .     A
C64    H74     1.083   .     S
C65    N73     1.361   .     A
C65    H75     1.082   .     S
C66    C67     1.395   .     A
C66    H76     1.082   .     S
C66    N73     1.358   1_465 A
C67    H77     1.083   .     S
C67    C63     1.404   1_465 A
H68    C82     1.083   .     S
H69    C79     1.083   .     S
H70    C80     1.081   .     S
H71    C81     1.082   .     S
N72    C80     1.361   .     A
N72    Ni62    1.841   1_465 S
N72    C81     1.358   1_465 A
N73    C66     1.358   1_645 A
C78    C79     1.403   .     A
C78    C82     1.404   1_465 A
C78    C12     1.477   1_465 S
C79    C80     1.399   .     A
C81    C82     1.394   .     A
C81    N72     1.358   1_645 A
C82    C78     1.404   1_645 A
