data_pcu+N505+E225
_audit_creation_date              2023-11-17
_audit_creation_method            'Materials Studio'
_symmetry_space_group_name_H-M    'P1'
_symmetry_Int_Tables_number       1
_symmetry_cell_setting            triclinic
loop_
_symmetry_equiv_pos_as_xyz
  x,y,z
_cell_length_a                    17.7258
_cell_length_b                    23.2095
_cell_length_c                    21.0113
_cell_angle_alpha                 92.8583
_cell_angle_beta                  33.5517
_cell_angle_gamma                 100.0259
loop_
_atom_site_label
_atom_site_type_symbol
_atom_site_fract_x
_atom_site_fract_y
_atom_site_fract_z
_atom_site_U_iso_or_equiv
_atom_site_adp_type
_atom_site_occupancy
Yb0    Yb    1.04465   0.09406  -0.07641   0.00000  Uiso   1.00
Yb1    Yb   -0.02414   0.90731   1.06846   0.00000  Uiso   1.00
C2     C    -0.03365   0.80174   1.04836   0.00000  Uiso   1.00
O3     O     0.16527   0.06419   0.76715   0.00000  Uiso   1.00
O4     O     0.97350   0.09274   0.87944   0.00000  Uiso   1.00
O5     O     0.93339   0.00456   0.01505   0.00000  Uiso   1.00
O6     O     0.84495   0.91022   1.07664   0.00000  Uiso   1.00
O7     O     1.11869   0.18672   0.87044   0.00000  Uiso   1.00
O8     O     0.92330   0.14536   0.05641   0.00000  Uiso   1.00
O9     O     0.88019   0.94787   0.20914   0.00000  Uiso   1.00
O10    O     0.05681   0.90788   0.10401   0.00000  Uiso   1.00
C11    C     1.07681   0.07155   0.78668   0.00000  Uiso   1.00
O12    O     0.15802   0.08939  -0.06821   0.00000  Uiso   1.00
O13    O     0.12346   0.99203   0.94395   0.00000  Uiso   1.00
O14    O    -0.12737   0.81759   0.14975   0.00000  Uiso   1.00
C15    C     0.85219   0.95922   0.04572   0.00000  Uiso   1.00
O16    O     0.06473   0.84394   0.95831   0.00000  Uiso   1.00
C17    C     1.01106   0.19334  -0.02132   0.00000  Uiso   1.00
C18    C    -0.03508   0.93504   0.19069   0.00000  Uiso   1.00
C19    C     0.16537   0.03991   0.94907   0.00000  Uiso   1.00
C20    C     0.96219   0.73862   0.03558   0.00000  Uiso   1.00
C21    C     0.86446   0.69336   0.13327   0.00000  Uiso   1.00
C22    C     0.86275   0.63367   0.12037   0.00000  Uiso   1.00
C23    C    -0.04005   0.61826   1.00898   0.00000  Uiso   1.00
C24    C     0.05383   0.66337   0.91264   0.00000  Uiso   1.00
C25    C     0.05641   0.72305   0.92517   0.00000  Uiso   1.00
C26    C    -0.06569   0.51867   0.05864   0.00000  Uiso   1.00
H27    H     0.17548   0.30109   0.83400   0.00000  Uiso   1.00
H28    H     0.13289   0.39910   0.88954   0.00000  Uiso   1.00
H29    H     0.75263   0.31818   0.25371   0.00000  Uiso   1.00
H30    H     0.79559   0.21961   0.19874   0.00000  Uiso   1.00
H31    H    -0.04706   0.44813   0.98312   0.00000  Uiso   1.00
O32    O     0.90787   0.42105   0.11181   0.00000  Uiso   1.00
O33    O    -0.03894   0.55907   0.99119   0.00000  Uiso   1.00
C34    C    -0.01212   0.25270   1.01210   0.00000  Uiso   1.00
C35    C     0.08236   0.30411   0.92594   0.00000  Uiso   1.00
C36    C     0.05729   0.36011   0.95755   0.00000  Uiso   1.00
C37    C    -0.06396   0.36560   0.07623   0.00000  Uiso   1.00
C38    C     0.84463   0.31451   0.16208   0.00000  Uiso   1.00
C39    C     0.86941   0.25845   0.13055   0.00000  Uiso   1.00
C40    C    -0.06505   0.46206   1.04465   0.00000  Uiso   1.00
H41    H     0.78462   0.59979   0.19735   0.00000  Uiso   1.00
H42    H     0.12657   0.65208   0.82708   0.00000  Uiso   1.00
H43    H     0.78959   0.70408   0.21959   0.00000  Uiso   1.00
H44    H     0.91926   0.53277   0.11829   0.00000  Uiso   1.00
H45    H     0.13168   0.75698   0.84857   0.00000  Uiso   1.00
C46    C     0.22204   1.03952   0.97401   0.00000  Uiso   1.00
C47    C     0.30948   1.00177   0.92572   0.00000  Uiso   1.00
C48    C     0.36419   1.00155   0.94866   0.00000  Uiso   1.00
C49    C     0.33401   0.04012   0.01920   0.00000  Uiso   1.00
C50    C     0.24730   0.07799   0.06632   0.00000  Uiso   1.00
C51    C     0.19313   0.07836   0.04291   0.00000  Uiso   1.00
C52    C     0.49147   1.01579  -0.01522   0.00000  Uiso   1.00
H53    H     0.70665   0.03917   0.11356   0.00000  Uiso   1.00
H54    H     0.61014   0.04745   0.07563   0.00000  Uiso   1.00
H55    H     0.74374   0.89183   0.91301   0.00000  Uiso   1.00
H56    H     0.84096   0.88371   0.95070   0.00000  Uiso   1.00
H57    H     0.44100   0.00372   0.11623   0.00000  Uiso   1.00
O58    O     0.63088   0.97590  -0.04444   0.00000  Uiso   1.00
O59    O     0.37327   0.03788   0.05574   0.00000  Uiso   1.00
C60    C     0.78146  -0.03891   0.03422   0.00000  Uiso   1.00
C61    C     0.71230   0.00610   0.07205   0.00000  Uiso   1.00
C62    C     0.65502   0.01013   0.05214   0.00000  Uiso   1.00
C63    C     0.66565   0.96869  -0.00545   0.00000  Uiso   1.00
C64    C     0.73112   0.92286   0.96032   0.00000  Uiso   1.00
C65    C     0.78740   0.91863   0.98093   0.00000  Uiso   1.00
C66    C     0.51534   0.00021   0.02640   0.00000  Uiso   1.00
H67    H     0.42478   0.96946   0.91487   0.00000  Uiso   1.00
H68    H     0.22087   0.10704   0.12234   0.00000  Uiso   1.00
H69    H     0.33457   0.97207   0.87093   0.00000  Uiso   1.00
H70    H     0.56685   1.01213   0.89482   0.00000  Uiso   1.00
H71    H     0.12591   0.10793   0.08089   0.00000  Uiso   1.00
C72    C    -0.03970   0.95210   0.26244   0.00000  Uiso   1.00
C73    C     0.05232   0.93634   0.24118   0.00000  Uiso   1.00
C74    C     0.05677   0.95656   0.30195   0.00000  Uiso   1.00
C75    C     0.96553  -0.00834   0.38832   0.00000  Uiso   1.00
C76    C     0.87304   0.00670   0.40986   0.00000  Uiso   1.00
C77    C     0.86990  -0.01287   0.34798   0.00000  Uiso   1.00
C78    C     1.02558   0.98916   0.45740   0.00000  Uiso   1.00
H79    H     0.89629   0.07664   0.81692   0.00000  Uiso   1.00
H80    H     0.90318   0.04036   0.70188   0.00000  Uiso   1.00
H81    H     0.29229   0.99195   0.46661   0.00000  Uiso   1.00
H82    H     0.28386   1.02719   0.58431   0.00000  Uiso   1.00
H83    H     1.02574   0.05998   0.52251   0.00000  Uiso   1.00
O84    O     1.10657   0.99030   0.50681   0.00000  Uiso   1.00
O85    O     0.96816   0.01604   0.44936   0.00000  Uiso   1.00
C86    C     1.08934   0.05467   0.70980   0.00000  Uiso   1.00
C87    C     0.98443   0.05902   0.73982   0.00000  Uiso   1.00
C88    C     0.98924   0.03878   0.67297   0.00000  Uiso   1.00
C89    C     1.10149   1.01494   0.57261   0.00000  Uiso   1.00
C90    C     1.20663   1.01108   0.54230   0.00000  Uiso   1.00
C91    C     1.20133   1.03102   0.60971   0.00000  Uiso   1.00
C92    C     1.04866   0.01661   0.49878   0.00000  Uiso   1.00
H93    H     0.13543   0.94638   0.27730   0.00000  Uiso   1.00
H94    H     0.80368   0.03427   0.47461   0.00000  Uiso   1.00
H95    H     0.12472   0.91010   0.17442   0.00000  Uiso   1.00
H96    H     1.04634   0.94542   0.43568   0.00000  Uiso   1.00
H97    H     0.79723  -0.00025   0.36682   0.00000  Uiso   1.00
loop_
_geom_bond_atom_site_label_1
_geom_bond_atom_site_label_2
_geom_bond_distance
_geom_bond_site_symmetry_2
_ccdc_geom_bond_type
Yb0    O5      2.134   .     S
Yb0    O8      2.095   .     S
Yb0    O3      2.105   1_654 S
Yb0    O4      2.094   1_554 S
Yb0    O7      2.100   1_554 S
Yb0    O12     2.176   1_655 S
Yb1    O13     2.206   .     S
Yb1    O16     2.096   .     S
Yb1    O6      2.193   1_455 S
Yb1    O9      2.103   1_456 S
Yb1    O10     2.097   1_556 S
Yb1    O14     2.103   1_556 S
C2     O16     1.293   .     A
C2     O14     1.292   1_556 A
C2     C20     1.476   1_456 S
O3     Yb0     2.105   1_456 S
O3     C11     1.292   1_455 A
O4     C11     1.290   .     A
O4     Yb0     2.094   1_556 S
O5     C15     1.260   1_545 A
O6     Yb1     2.193   1_655 S
O6     C15     1.271   1_556 A
O7     Yb0     2.100   1_556 S
O7     C17     1.293   1_556 A
O8     C17     1.292   .     A
O9     Yb1     2.103   1_654 S
O9     C18     1.292   1_655 A
O10    C18     1.291   .     A
O10    Yb1     2.097   1_554 S
C11    C86     1.477   .     S
C11    O3      1.292   1_655 A
O12    Yb0     2.176   1_455 S
O12    C19     1.280   1_554 A
O13    C19     1.278   1_565 A
O14    Yb1     2.103   1_554 S
O14    C2      1.292   1_554 A
C15    O5      1.260   1_565 A
C15    O6      1.271   1_554 A
C15    C60     1.469   1_565 S
C17    O7      1.293   1_554 A
C17    C34     1.476   1_654 S
C18    C72     1.477   .     S
C18    O9      1.292   1_455 A
C19    O12     1.280   1_556 A
C19    O13     1.278   1_545 A
C19    C46     1.471   1_545 S
C20    C21     1.404   .     A
C20    C25     1.404   1_654 A
C20    C2      1.476   1_654 S
C21    C22     1.398   .     A
C21    H43     1.082   .     S
C22    H41     1.080   .     S
C22    C23     1.408   1_654 A
C23    C24     1.398   .     A
C23    O33     1.405   .     S
C23    C22     1.408   1_456 A
C24    C25     1.397   .     A
C24    H42     1.082   .     S
C25    H45     1.083   .     S
C25    C20     1.404   1_456 A
C26    O33     1.404   1_554 S
C26    C40     1.332   1_554 D
C26    H44     1.087   1_455 S
H27    C35     1.083   .     S
H28    C36     1.083   .     S
H29    C38     1.083   .     S
H30    C39     1.082   .     S
H31    C40     1.088   .     S
O32    C37     1.404   1_655 S
O32    C40     1.405   1_654 S
O33    C26     1.404   1_556 S
C34    C35     1.404   .     A
C34    C39     1.405   1_456 A
C34    C17     1.476   1_456 S
C35    C36     1.397   .     A
C36    C37     1.409   1_556 A
C37    O32     1.404   1_455 S
C37    C36     1.409   1_554 A
C37    C38     1.399   1_455 A
C38    C39     1.397   .     A
C38    C37     1.399   1_655 A
C39    C34     1.405   1_654 A
C40    C26     1.332   1_556 D
C40    O32     1.405   1_456 S
H44    C26     1.087   1_655 S
C46    C47     1.401   .     A
C46    C51     1.402   1_566 A
C46    C19     1.471   1_565 S
C47    C48     1.398   .     A
C47    H69     1.083   .     S
C48    H67     1.080   .     S
C48    C49     1.413   1_566 A
C49    C50     1.401   .     A
C49    O59     1.409   .     S
C49    C48     1.413   1_544 A
C50    C51     1.398   .     A
C50    H68     1.082   .     S
C51    H71     1.083   .     S
C51    C46     1.402   1_544 A
C52    O59     1.402   1_565 S
C52    C66     1.333   1_565 D
C52    H70     1.086   1_554 S
H53    C61     1.084   .     S
H54    C62     1.082   .     S
H55    C64     1.082   .     S
H56    C65     1.083   .     S
H57    C66     1.087   .     S
O58    C63     1.404   .     S
O58    C66     1.402   1_565 S
O59    C52     1.402   1_545 S
C60    C61     1.402   .     A
C60    C65     1.402   1_544 A
C60    C15     1.469   1_545 S
C61    C62     1.400   .     A
C62    C63     1.411   1_545 A
C63    C62     1.411   1_565 A
C63    C64     1.399   1_554 A
C64    C65     1.397   .     A
C64    C63     1.399   1_556 A
C65    C60     1.402   1_566 A
C66    C52     1.333   1_545 D
C66    O58     1.402   1_545 S
H70    C52     1.086   1_556 S
C72    C73     1.404   .     A
C72    C77     1.402   1_465 A
C73    C74     1.397   .     A
C73    H95     1.083   .     S
C74    H93     1.080   .     S
C74    C75     1.411   1_465 A
C75    C76     1.400   .     A
C75    O85     1.409   .     S
C75    C74     1.411   1_645 A
C76    C77     1.397   .     A
C76    H94     1.082   .     S
C77    H97     1.082   .     S
C77    C72     1.402   1_645 A
C78    H96     1.085   .     S
C78    O85     1.404   1_565 S
C78    C92     1.333   1_565 D
H79    C87     1.082   .     S
H80    C88     1.082   .     S
H81    C90     1.082   1_455 S
H82    C91     1.083   1_455 S
H83    C92     1.087   .     S
O84    C89     1.406   .     S
O84    C92     1.404   1_565 S
O85    C78     1.404   1_545 S
C86    C87     1.404   .     A
C86    C91     1.404   1_545 A
C87    C88     1.396   .     A
C88    C89     1.409   1_545 A
C89    C90     1.400   .     A
C89    C88     1.409   1_565 A
C90    C91     1.399   .     A
C90    H81     1.082   1_655 S
C91    H82     1.083   1_655 S
C91    C86     1.404   1_565 A
C92    C78     1.333   1_545 D
C92    O84     1.404   1_545 S
