data_pcu+N106+E225
_audit_creation_date              2023-11-17
_audit_creation_method            'Materials Studio'
_symmetry_space_group_name_H-M    'P1'
_symmetry_Int_Tables_number       1
_symmetry_cell_setting            triclinic
loop_
_symmetry_equiv_pos_as_xyz
  x,y,z
_cell_length_a                    22.7689
_cell_length_b                    19.8575
_cell_length_c                    18.4020
_cell_angle_alpha                 69.8332
_cell_angle_beta                  63.7635
_cell_angle_gamma                 87.5811
loop_
_atom_site_label
_atom_site_type_symbol
_atom_site_fract_x
_atom_site_fract_y
_atom_site_fract_z
_atom_site_U_iso_or_equiv
_atom_site_adp_type
_atom_site_occupancy
Y0     Y     0.93527   0.00391   0.00743   0.00000  Uiso   1.00
Y1     Y     0.08095   0.98264   0.98809   0.00000  Uiso   1.00
O2     O     0.97686   0.11755  -0.02669   0.00000  Uiso   1.00
O3     O     1.03902   0.04479   0.89824   0.00000  Uiso   1.00
C4     C     0.19299   0.96953   1.00530   0.00000  Uiso   1.00
O5     O     0.10500   0.96960   0.86040   0.00000  Uiso   1.00
O6     O     0.82440  -0.01472   0.06192   0.00000  Uiso   1.00
O7     O     0.88005   0.04187   0.92775   0.00000  Uiso   1.00
O8     O     0.06243   0.09127   1.00403   0.00000  Uiso   1.00
O9     O    -0.02280   0.94174   0.09726   0.00000  Uiso   1.00
O10    O     0.91137   0.01705   0.13504   0.00000  Uiso   1.00
O11    O     0.95378   0.89530  -0.00853   0.00000  Uiso   1.00
C12    C     0.02321   0.13560   0.98748   0.00000  Uiso   1.00
O13    O     0.03950   0.86904   1.02187   0.00000  Uiso   1.00
C14    C     0.06799   1.00935   0.84131   0.00000  Uiso   1.00
O15    O     0.19178   1.00154   0.93376   0.00000  Uiso   1.00
O16    O     0.13613   0.94451   0.06782   0.00000  Uiso   1.00
C17    C     0.82318   0.01712  -0.00965   0.00000  Uiso   1.00
C18    C     0.99310   0.85100   0.00779   0.00000  Uiso   1.00
C19    C     0.94833  -0.02276   0.15414   0.00000  Uiso   1.00
C20    C    -0.01567   0.77638   0.01084   0.00000  Uiso   1.00
C21    C     0.02452   0.72539   0.03194   0.00000  Uiso   1.00
C22    C     0.01644   0.65513   0.03437   0.00000  Uiso   1.00
C23    C    -0.03144   0.63473   1.01429   0.00000  Uiso   1.00
C24    C     0.92759   0.68497   0.99530   0.00000  Uiso   1.00
C25    C     0.93556   0.75524   0.99287   0.00000  Uiso   1.00
C26    C     0.01264   0.52842  -0.00899   0.00000  Uiso   1.00
H27    H     0.95442   0.24703   0.94768   0.00000  Uiso   1.00
H28    H     0.97007   0.37029   0.94032   0.00000  Uiso   1.00
H29    H     0.12742   0.31766   0.01184   0.00000  Uiso   1.00
H30    H     0.11318   0.19402   0.01756   0.00000  Uiso   1.00
H31    H    -0.04532   0.43077   1.03444   0.00000  Uiso   1.00
O32    O     0.06017   0.42305  -0.02546   0.00000  Uiso   1.00
O33    O    -0.04302   0.56422   1.01841   0.00000  Uiso   1.00
C34    C     0.03210   0.21033   0.98407   0.00000  Uiso   1.00
C35    C     0.99197   0.26130   0.96276   0.00000  Uiso   1.00
C36    C     1.00034   0.33175   0.95962   0.00000  Uiso   1.00
C37    C     0.04837   0.35235  -0.02068   0.00000  Uiso   1.00
C38    C     0.08925   0.30210  -0.00143   0.00000  Uiso   1.00
C39    C     0.08106   0.23167   0.00158   0.00000  Uiso   1.00
C40    C     0.00456   0.45892   1.00196   0.00000  Uiso   1.00
H41    H     0.04682   0.61660   0.05337   0.00000  Uiso   1.00
H42    H     0.88958   0.66957   0.98168   0.00000  Uiso   1.00
H43    H     0.06193   0.73951   0.04732   0.00000  Uiso   1.00
H44    H     0.06251   0.55661  -0.04140   0.00000  Uiso   1.00
H45    H     0.90346   0.79294   0.97691   0.00000  Uiso   1.00
C46    C     0.25412  -0.03749   1.01506   0.00000  Uiso   1.00
C47    C     0.31576  -0.00734   0.94266   0.00000  Uiso   1.00
C48    C     0.37363  -0.01369   0.95210   0.00000  Uiso   1.00
C49    C     0.37066   0.95045   0.03466   0.00000  Uiso   1.00
C50    C     0.30926   0.91891   0.10624   0.00000  Uiso   1.00
C51    C     0.25137   0.92528   0.09691   0.00000  Uiso   1.00
C52    C     0.47926   0.99808   0.99674   0.00000  Uiso   1.00
H53    H     0.69676   0.96712   0.11730   0.00000  Uiso   1.00
H54    H     0.59549   0.98004   0.10123   0.00000  Uiso   1.00
H55    H     0.70989   0.09652   0.82581   0.00000  Uiso   1.00
H56    H     0.81177   0.08480   0.84177   0.00000  Uiso   1.00
H57    H     0.54306   0.93724   0.03848   0.00000  Uiso   1.00
O58    O     0.58873   1.04695   0.94845   0.00000  Uiso   1.00
O59    O     0.42738   0.94064   0.04743   0.00000  Uiso   1.00
C60    C     0.76202   1.02429  -0.01936   0.00000  Uiso   1.00
C61    C     0.70032   0.99486   0.05320   0.00000  Uiso   1.00
C62    C     0.64245   1.00149   0.04380   0.00000  Uiso   1.00
C63    C     0.64546   1.03690   0.96113   0.00000  Uiso   1.00
C64    C     0.70694   0.06771   0.88936   0.00000  Uiso   1.00
C65    C     0.76484   0.06105   0.89866   0.00000  Uiso   1.00
C66    C     0.53684   0.98953  -0.00090   0.00000  Uiso   1.00
H67    H     0.42053   0.00833   0.89473   0.00000  Uiso   1.00
H68    H     0.30636   0.88975   0.16969   0.00000  Uiso   1.00
H69    H     0.31928   0.02080   0.87865   0.00000  Uiso   1.00
H70    H     0.47304   1.05039   0.95740   0.00000  Uiso   1.00
H71    H     0.20449   0.90096   0.15366   0.00000  Uiso   1.00
C72    C     0.95950  -0.03308   0.23003   0.00000  Uiso   1.00
C73    C     0.93324   0.01051   0.27998   0.00000  Uiso   1.00
C74    C     0.94555   0.00169   0.35051   0.00000  Uiso   1.00
C75    C    -0.01484   0.94953   0.37154   0.00000  Uiso   1.00
C76    C     0.00960   0.90485   0.32303   0.00000  Uiso   1.00
C77    C    -0.00261   0.91371   0.25246   0.00000  Uiso   1.00
C78    C     0.00650  -0.00182   0.46088   0.00000  Uiso   1.00
H79    H     0.11404   0.93592   0.73023   0.00000  Uiso   1.00
H80    H     0.09470   0.95300   0.60486   0.00000  Uiso   1.00
H81    H     0.97785   0.12320   0.65538   0.00000  Uiso   1.00
H82    H     0.99844   0.10734   0.78016   0.00000  Uiso   1.00
H83    H     0.00665   0.93485   0.57791   0.00000  Uiso   1.00
O84    O     0.02026   0.05046   0.55095   0.00000  Uiso   1.00
O85    O    -0.00224   0.93714   0.44297   0.00000  Uiso   1.00
C86    C     0.05705   1.01979   0.76523   0.00000  Uiso   1.00
C87    C     0.08390   0.97666   0.71481   0.00000  Uiso   1.00
C88    C     0.07204   0.98577   0.64387   0.00000  Uiso   1.00
C89    C     0.03229   0.03773   0.62290   0.00000  Uiso   1.00
C90    C     0.00724   0.08198   0.67188   0.00000  Uiso   1.00
C91    C     0.01897   0.07280   0.74291   0.00000  Uiso   1.00
C92    C     0.01148   0.98945   0.53299   0.00000  Uiso   1.00
H93    H     0.92336   0.03484   0.38912   0.00000  Uiso   1.00
H94    H     0.03881   0.86343   0.33966   0.00000  Uiso   1.00
H95    H     0.90330   0.05145   0.26441   0.00000  Uiso   1.00
H96    H     0.01133   0.05277   0.41593   0.00000  Uiso   1.00
H97    H     0.01747   0.87883   0.21556   0.00000  Uiso   1.00
loop_
_geom_bond_atom_site_label_1
_geom_bond_atom_site_label_2
_geom_bond_distance
_geom_bond_site_symmetry_2
_ccdc_geom_bond_type
Y0     O2      2.250   .     S
Y0     O6      2.258   .     S
Y0     O10     2.271   .     S
Y0     O3      2.262   1_554 S
Y0     O7      2.256   1_554 S
Y0     O9      2.249   1_645 S
Y0     O11     2.273   1_545 S
Y1     O5      2.271   .     S
Y1     O13     2.250   .     S
Y1     O15     2.258   .     S
Y1     O3      2.249   1_465 S
Y1     O8      2.273   1_565 S
Y1     O9      2.262   1_556 S
Y1     O16     2.256   1_556 S
O2     C12     1.284   1_654 A
O3     Y0      2.262   1_556 S
O3     Y1      2.249   1_645 S
O3     C14     1.373   1_645 S
C4     O15     1.262   .     A
C4     O16     1.261   1_556 A
C4     C46     1.475   1_565 S
O5     C14     1.213   .     D
O6     C17     1.262   .     A
O7     Y0      2.256   1_556 S
O7     C17     1.261   1_556 A
O8     C12     1.286   .     A
O8     Y1      2.273   1_545 S
O9     Y0      2.249   1_465 S
O9     Y1      2.262   1_554 S
O9     C19     1.373   1_465 S
O10    C19     1.213   .     D
O11    C18     1.286   .     A
O11    Y0      2.273   1_565 S
C12    C34     1.482   .     S
C12    O2      1.284   1_456 A
O13    C18     1.285   1_456 A
C14    C86     1.473   .     S
C14    O3      1.373   1_465 S
O16    Y1      2.256   1_554 S
O16    C4      1.261   1_554 A
C17    O7      1.261   1_554 A
C17    C60     1.475   1_545 S
C18    O13     1.285   1_654 A
C18    C20     1.482   1_655 S
C19    C72     1.473   .     S
C19    O9      1.373   1_645 S
C20    C21     1.407   .     A
C20    C25     1.407   1_454 A
C20    C18     1.482   1_455 S
C21    C22     1.398   .     A
C21    H43     1.083   .     S
C22    H41     1.082   .     S
C22    C23     1.409   1_554 A
C23    O33     1.406   .     S
C23    C22     1.409   1_556 A
C23    C24     1.399   1_455 A
C24    C25     1.398   .     A
C24    H42     1.083   .     S
C24    C23     1.399   1_655 A
C25    H45     1.083   .     S
C25    C20     1.407   1_656 A
C26    H44     1.088   .     S
C26    O33     1.404   1_554 S
C26    C40     1.333   1_554 D
H27    C35     1.083   .     S
H28    C36     1.082   .     S
H29    C38     1.083   .     S
H30    C39     1.083   .     S
H31    C40     1.088   .     S
O32    C37     1.406   .     S
O32    C40     1.404   1_554 S
O33    C26     1.404   1_556 S
C34    C35     1.407   1_455 A
C34    C39     1.407   1_556 A
C35    C36     1.398   .     A
C35    C34     1.407   1_655 A
C36    C37     1.409   1_656 A
C37    C38     1.399   .     A
C37    C36     1.409   1_454 A
C38    C39     1.398   .     A
C39    C34     1.407   1_554 A
C40    C26     1.333   1_556 D
C40    O32     1.404   1_556 S
C46    C47     1.404   .     A
C46    C51     1.404   1_546 A
C46    C4      1.475   1_545 S
C47    C48     1.398   .     A
C47    H69     1.083   .     S
C48    H67     1.082   .     S
C48    C49     1.410   1_546 A
C49    C50     1.400   .     A
C49    O59     1.406   .     S
C49    C48     1.410   1_564 A
C50    C51     1.398   .     A
C50    H68     1.083   .     S
C51    H71     1.083   .     S
C51    C46     1.404   1_564 A
C52    H70     1.088   .     S
C52    O59     1.404   1_556 S
C52    C66     1.333   1_556 D
H53    C61     1.083   .     S
H54    C62     1.082   .     S
H55    C64     1.083   .     S
H56    C65     1.083   .     S
H57    C66     1.088   .     S
O58    C63     1.406   .     S
O58    C66     1.404   1_556 S
O59    C52     1.404   1_554 S
C60    C61     1.404   .     A
C60    C65     1.404   1_564 A
C60    C17     1.475   1_565 S
C61    C62     1.398   .     A
C62    C63     1.410   1_554 A
C63    C62     1.410   1_556 A
C63    C64     1.399   1_565 A
C64    C65     1.398   .     A
C64    C63     1.399   1_545 A
C65    C60     1.404   1_546 A
C66    C52     1.333   1_554 D
C66    O58     1.404   1_554 S
C72    C73     1.404   .     A
C72    C77     1.403   1_645 A
C73    C74     1.398   .     A
C73    H95     1.083   .     S
C74    H93     1.082   .     S
C74    C75     1.410   1_645 A
C75    C76     1.400   .     A
C75    O85     1.405   .     S
C75    C74     1.410   1_465 A
C76    C77     1.397   .     A
C76    H94     1.083   .     S
C77    H97     1.083   .     S
C77    C72     1.403   1_465 A
C78    H96     1.088   .     S
C78    O85     1.404   1_545 S
C78    C92     1.333   1_545 D
H79    C87     1.083   .     S
H80    C88     1.082   .     S
H81    C90     1.083   1_655 S
H82    C91     1.083   1_655 S
H83    C92     1.088   .     S
O84    C89     1.406   .     S
O84    C92     1.404   1_545 S
O85    C78     1.404   1_565 S
C86    C87     1.404   .     A
C86    C91     1.403   1_565 A
C87    C88     1.398   .     A
C88    C89     1.410   1_565 A
C89    C90     1.400   .     A
C89    C88     1.410   1_545 A
C90    C91     1.398   .     A
C90    H81     1.083   1_455 S
C91    H82     1.083   1_455 S
C91    C86     1.403   1_545 A
C92    C78     1.333   1_565 D
C92    O84     1.404   1_565 S
