data_pcu+N123+E9
_audit_creation_date              2023-11-17
_audit_creation_method            'Materials Studio'
_symmetry_space_group_name_H-M    'P1'
_symmetry_Int_Tables_number       1
_symmetry_cell_setting            triclinic
loop_
_symmetry_equiv_pos_as_xyz
  x,y,z
_cell_length_a                    22.2885
_cell_length_b                    19.8066
_cell_length_c                    19.1618
_cell_angle_alpha                 89.8983
_cell_angle_beta                  88.3770
_cell_angle_gamma                 90.1144
loop_
_atom_site_label
_atom_site_type_symbol
_atom_site_fract_x
_atom_site_fract_y
_atom_site_fract_z
_atom_site_U_iso_or_equiv
_atom_site_adp_type
_atom_site_occupancy
Ce0    Ce    0.06360   1.00089   0.99749   0.00000  Uiso   1.00
Ce1    Ce    0.93395   0.00066   0.00134   0.00000  Uiso   1.00
C2     C     0.95159   1.00071   0.86222   0.00000  Uiso   1.00
C3     C     0.18461   1.00098   0.99822   0.00000  Uiso   1.00
C4     C     0.99870   0.85459  -0.00035   0.00000  Uiso   1.00
C5     C     0.04596   0.00087   0.13661   0.00000  Uiso   1.00
C6     C     0.81294   0.00055   0.00061   0.00000  Uiso   1.00
C7     C    -0.00115   0.14696   0.99918   0.00000  Uiso   1.00
O8     O     0.90128   0.00061   0.88981   0.00000  Uiso   1.00
O9     O    -0.00102   1.00079   0.90864   0.00000  Uiso   1.00
O10    O     0.15532   1.00103   0.94186   0.00000  Uiso   1.00
O11    O     0.15228   1.00094   0.05453   0.00000  Uiso   1.00
O12    O     0.05003   0.88552  -0.00105   0.00000  Uiso   1.00
O13    O     0.94739   0.88533   0.00027   0.00000  Uiso   1.00
O14    O     0.09628   1.00093   0.10901   0.00000  Uiso   1.00
O15    O     0.99857   0.00078   0.09019   0.00000  Uiso   1.00
O16    O     0.84223   0.00054   0.05697   0.00000  Uiso   1.00
O17    O     0.84527   0.00057   0.94429   0.00000  Uiso   1.00
O18    O     0.94752   0.11604   0.99982   0.00000  Uiso   1.00
O19    O     0.05016   0.11622   0.99862   0.00000  Uiso   1.00
C20    C     0.99871   0.64343   0.99987   0.00000  Uiso   1.00
N21    N    -0.05376   0.67816   1.00139   0.00000  Uiso   1.00
N22    N    -0.05377   0.74543   1.00130   0.00000  Uiso   1.00
C23    C     0.99869   0.78044   0.99970   0.00000  Uiso   1.00
N24    N     1.05116   0.74569  -0.00171   0.00000  Uiso   1.00
N25    N     1.05117   0.67842  -0.00168   0.00000  Uiso   1.00
C26    C     0.99874   0.56928   0.99974   0.00000  Uiso   1.00
N27    N     1.05123   0.53458  -0.00176   0.00000  Uiso   1.00
N28    N     1.05128   0.46731  -0.00198   0.00000  Uiso   1.00
C29    C     0.99883   0.43228   0.99918   0.00000  Uiso   1.00
N30    N     0.94635   0.46699   1.00062   0.00000  Uiso   1.00
N31    N     0.94630   0.53425   1.00092   0.00000  Uiso   1.00
C32    C     0.99886   0.35813   0.99909   0.00000  Uiso   1.00
N33    N    -0.05359   0.32314   0.99947   0.00000  Uiso   1.00
N34    N    -0.05359   0.25587   0.99945   0.00000  Uiso   1.00
C35    C     0.99886   0.22112   0.99911   0.00000  Uiso   1.00
N36    N     1.05132   0.25611  -0.00131   0.00000  Uiso   1.00
N37    N     1.05132   0.32338  -0.00135   0.00000  Uiso   1.00
C38    C     0.37201   1.00076   0.99892   0.00000  Uiso   1.00
N39    N     0.34269   1.00121   0.93776   0.00000  Uiso   1.00
N40    N     0.28292   1.00128   0.93753   0.00000  Uiso   1.00
C41    C     0.25034   1.00093   0.99845   0.00000  Uiso   1.00
N42    N     0.27959   1.00046   0.05960   0.00000  Uiso   1.00
N43    N     0.33936   1.00036   0.05984   0.00000  Uiso   1.00
C44    C     0.43791   1.00074   0.99918   0.00000  Uiso   1.00
N45    N     0.46722   1.00021   0.06033   0.00000  Uiso   1.00
N46    N     0.52700   1.00018   0.06056   0.00000  Uiso   1.00
C47    C     0.55964   1.00068   0.99965   0.00000  Uiso   1.00
N48    N     0.53032   1.00120   0.93850   0.00000  Uiso   1.00
N49    N     0.47055   1.00125   0.93827   0.00000  Uiso   1.00
C50    C     0.62553   1.00065   0.99991   0.00000  Uiso   1.00
N51    N     0.65818   1.00089   0.93899   0.00000  Uiso   1.00
N52    N     0.71795   1.00083   0.93922   0.00000  Uiso   1.00
C53    C     0.74721   1.00056   1.00038   0.00000  Uiso   1.00
N54    N     0.71463   1.00035   0.06130   0.00000  Uiso   1.00
N55    N     0.65485   1.00037   0.06106   0.00000  Uiso   1.00
C56    C     0.01792   0.00107   0.35302   0.00000  Uiso   1.00
N57    N     0.97071   0.00069   0.30975   0.00000  Uiso   1.00
N58    N     0.97972   0.00063   0.24071   0.00000  Uiso   1.00
C59    C     0.03625   0.00092   0.21250   0.00000  Uiso   1.00
N60    N     0.08348   1.00130   0.25568   0.00000  Uiso   1.00
N61    N     0.07447   1.00137   0.32472   0.00000  Uiso   1.00
C62    C     0.00798   0.00112   0.42911   0.00000  Uiso   1.00
N63    N     0.05517   1.00170   0.47239   0.00000  Uiso   1.00
N64    N     0.04615   1.00168   0.54143   0.00000  Uiso   1.00
C65    C    -0.01039   0.00109   0.56971   0.00000  Uiso   1.00
N66    N     0.94243   0.00052   0.52644   0.00000  Uiso   1.00
N67    N     0.95144   0.00054   0.45740   0.00000  Uiso   1.00
C68    C    -0.02033   0.00102   0.64581   0.00000  Uiso   1.00
N69    N     0.92311   0.00079   0.67409   0.00000  Uiso   1.00
N70    N     0.91409   0.00067   0.74313   0.00000  Uiso   1.00
C71    C    -0.03868   0.00077   0.78633   0.00000  Uiso   1.00
N72    N     0.01785   1.00099   0.75814   0.00000  Uiso   1.00
N73    N     0.02687   1.00112   0.68910   0.00000  Uiso   1.00
loop_
_geom_bond_atom_site_label_1
_geom_bond_atom_site_label_2
_geom_bond_distance
_geom_bond_site_symmetry_2
_ccdc_geom_bond_type
Ce0    O9      2.261   .     S
Ce0    O10     2.279   .     S
Ce0    O11     2.286   1_556 S
Ce0    O12     2.304   1_556 S
Ce0    O14     2.277   1_556 S
Ce0    O15     2.261   1_466 S
Ce0    O19     2.305   1_565 S
Ce1    O15     2.261   .     S
Ce1    O16     2.279   .     S
Ce1    O8      2.277   1_554 S
Ce1    O9      2.261   1_644 S
Ce1    O13     2.305   1_545 S
Ce1    O17     2.286   1_554 S
Ce1    O18     2.304   1_554 S
C2     O8      1.226   1_565 D
C2     O9      1.400   1_655 S
C2     C71     1.464   1_665 S
C3     O10     1.278   .     A
C3     C41     1.465   .     S
C3     O11     1.281   1_556 A
C4     O13     1.296   .     A
C4     O12     1.296   1_655 A
C4     C23     1.469   1_554 S
C5     C59     1.464   .     S
C5     O14     1.226   1_545 D
C5     O15     1.400   1_455 S
C6     O16     1.278   .     A
C6     O17     1.281   1_554 A
C6     C53     1.465   1_544 S
C7     O19     1.296   .     A
C7     O18     1.296   1_455 A
C7     C35     1.469   1_455 S
O8     Ce1     2.277   1_556 S
O8     C2      1.226   1_545 D
O9     Ce1     2.261   1_466 S
O9     C2      1.400   1_455 S
O11    Ce0     2.286   1_554 S
O11    C3      1.281   1_554 A
O12    Ce0     2.304   1_554 S
O12    C4      1.296   1_455 A
O13    Ce1     2.305   1_565 S
O14    Ce0     2.277   1_554 S
O14    C5      1.226   1_565 D
O15    Ce0     2.261   1_644 S
O15    C5      1.400   1_655 S
O17    Ce1     2.286   1_556 S
O17    C6      1.281   1_556 A
O18    Ce1     2.304   1_556 S
O18    C7      1.296   1_655 A
O19    Ce0     2.305   1_545 S
C20    C26     1.469   .     S
C20    N21     1.358   1_655 A
C20    N25     1.358   1_556 A
N21    N22     1.332   .     A
N21    C20     1.358   1_455 A
N22    C23     1.358   1_455 A
C23    N22     1.358   1_655 A
C23    N24     1.358   1_556 A
C23    C4      1.469   1_556 S
N24    N25     1.332   .     A
N24    C23     1.358   1_554 A
N25    C20     1.358   1_554 A
C26    N31     1.358   .     A
C26    N27     1.358   1_556 A
N27    N28     1.332   .     A
N27    C26     1.358   1_554 A
N28    C29     1.358   1_554 A
C29    N30     1.358   .     A
C29    C32     1.469   .     S
C29    N28     1.358   1_556 A
N30    N31     1.332   .     A
C32    N33     1.358   1_655 A
C32    N37     1.358   1_556 A
N33    N34     1.332   .     A
N33    C32     1.358   1_455 A
N34    C35     1.358   1_455 A
C35    N34     1.358   1_655 A
C35    N36     1.358   1_556 A
C35    C7      1.469   1_655 S
N36    N37     1.332   .     A
N36    C35     1.358   1_554 A
N37    C32     1.358   1_554 A
C38    N39     1.358   .     A
C38    C44     1.469   .     S
C38    N43     1.358   1_556 A
N39    N40     1.332   .     A
N40    C41     1.357   .     A
C41    N42     1.357   1_556 A
N42    N43     1.332   .     A
N42    C41     1.357   1_554 A
N43    C38     1.358   1_554 A
C44    N49     1.358   .     A
C44    N45     1.358   1_556 A
N45    N46     1.332   .     A
N45    C44     1.358   1_554 A
N46    C47     1.358   1_554 A
C47    N48     1.358   .     A
C47    C50     1.469   .     S
C47    N46     1.358   1_556 A
N48    N49     1.332   .     A
C50    N51     1.358   .     A
C50    N55     1.358   1_556 A
N51    N52     1.332   .     A
N52    C53     1.357   .     A
C53    N54     1.357   1_556 A
C53    C6      1.465   1_566 S
N54    N55     1.332   .     A
N54    C53     1.357   1_554 A
N55    C50     1.358   1_554 A
C56    C62     1.469   .     S
C56    N57     1.358   1_455 A
C56    N61     1.358   1_545 A
N57    N58     1.332   .     A
N57    C56     1.358   1_655 A
N58    C59     1.357   1_655 A
C59    N58     1.357   1_455 A
C59    N60     1.357   1_545 A
N60    N61     1.332   .     A
N60    C59     1.357   1_565 A
N61    C56     1.358   1_565 A
C62    N63     1.358   1_545 A
C62    N67     1.358   1_455 A
N63    N64     1.332   .     A
N63    C62     1.358   1_565 A
N64    C65     1.358   1_565 A
C65    C68     1.469   .     S
C65    N64     1.358   1_545 A
C65    N66     1.358   1_455 A
N66    N67     1.332   .     A
N66    C65     1.358   1_655 A
N67    C62     1.358   1_655 A
C68    N69     1.358   1_455 A
C68    N73     1.358   1_545 A
N69    N70     1.333   .     A
N69    C68     1.358   1_655 A
N70    C71     1.357   1_655 A
C71    N70     1.357   1_455 A
C71    N72     1.357   1_545 A
C71    C2      1.464   1_445 S
N72    N73     1.333   .     A
N72    C71     1.357   1_565 A
N73    C68     1.358   1_565 A
