data_pcu+N505+E15
_audit_creation_date              2023-11-17
_audit_creation_method            'Materials Studio'
_symmetry_space_group_name_H-M    'P1'
_symmetry_Int_Tables_number       1
_symmetry_cell_setting            triclinic
loop_
_symmetry_equiv_pos_as_xyz
  x,y,z
_cell_length_a                    8.5813
_cell_length_b                    13.9153
_cell_length_c                    11.8445
_cell_angle_alpha                 98.3599
_cell_angle_beta                  40.8849
_cell_angle_gamma                 83.7410
loop_
_atom_site_label
_atom_site_type_symbol
_atom_site_fract_x
_atom_site_fract_y
_atom_site_fract_z
_atom_site_U_iso_or_equiv
_atom_site_adp_type
_atom_site_occupancy
Yb0    Yb    1.00558   0.15013  -0.10234   0.00000  Uiso   1.00
Yb1    Yb   -0.01515   0.87189   1.08979   0.00000  Uiso   1.00
C2     C    -0.07110   0.70130   1.09040   0.00000  Uiso   1.00
O3     O     0.22286   0.03439   0.65313   0.00000  Uiso   1.00
O4     O     0.87171   0.15093   0.80345   0.00000  Uiso   1.00
O5     O     0.80209   0.05497   0.05584   0.00000  Uiso   1.00
O6     O     0.71946   0.91478   1.10438   0.00000  Uiso   1.00
O7     O     1.12060   0.27884   0.82080   0.00000  Uiso   1.00
O8     O     0.78284   0.29083   0.10928   0.00000  Uiso   1.00
O9     O     0.86985   0.98497   0.30288   0.00000  Uiso   1.00
O10    O     0.19689   0.84271   0.11573   0.00000  Uiso   1.00
C11    C     1.06251   0.06778   0.66590   0.00000  Uiso   1.00
O12    O     0.23809   0.11063  -0.08479   0.00000  Uiso   1.00
O13    O     0.21278   0.95390   0.89733   0.00000  Uiso   1.00
O14    O    -0.20192   0.77624   0.23765   0.00000  Uiso   1.00
C15    C     0.71914   0.98687   0.05080   0.00000  Uiso   1.00
O16    O     0.10021   0.71776   0.93688   0.00000  Uiso   1.00
C17    C     0.92849   0.33576  -0.00613   0.00000  Uiso   1.00
C18    C     0.04837   0.92529   0.25744   0.00000  Uiso   1.00
C19    C     0.29444   0.01997   0.91111   0.00000  Uiso   1.00
N20    N     0.66852   0.50216   0.24576   0.00000  Uiso   1.00
N21    N     0.66979   0.59717   0.27087   0.00000  Uiso   1.00
C22    C     0.87264   0.60471   0.10623   0.00000  Uiso   1.00
C23    C     0.00800   0.50958   0.96821   0.00000  Uiso   1.00
C24    C     0.87074   0.44660   0.06445   0.00000  Uiso   1.00
H25    H     0.18222   0.48881   0.82144   0.00000  Uiso   1.00
H26    H     0.53216   0.47584   0.35235   0.00000  Uiso   1.00
H27    H     0.53368   0.65563   0.39973   0.00000  Uiso   1.00
N28    N     0.74395   0.88409   0.84835   0.00000  Uiso   1.00
N29    N     0.62800   0.89168   0.81529   0.00000  Uiso   1.00
C30    C     0.46524   0.98850   0.90930   0.00000  Uiso   1.00
C31    C     0.48159   0.04652   0.00434   0.00000  Uiso   1.00
C32    C     0.66081   0.97625   0.96197   0.00000  Uiso   1.00
H33    H     0.36680   0.12513   0.10052   0.00000  Uiso   1.00
H34    H     0.87214   0.81563   0.79844   0.00000  Uiso   1.00
H35    H     0.65536   0.83048   0.73350   0.00000  Uiso   1.00
N36    N     0.23894   0.90584   0.43729   0.00000  Uiso   1.00
N37    N     0.23570   0.86868   0.33077   0.00000  Uiso   1.00
C38    C     0.08613   0.94401   0.35930   0.00000  Uiso   1.00
C39    C     0.98655   0.03409   0.49231   0.00000  Uiso   1.00
C40    C     0.09396   1.00600   0.53495   0.00000  Uiso   1.00
H41    H     0.85969   0.10854   0.54703   0.00000  Uiso   1.00
H42    H     0.33665   0.86244   0.44452   0.00000  Uiso   1.00
H43    H     0.33375   0.79234   0.24094   0.00000  Uiso   1.00
loop_
_geom_bond_atom_site_label_1
_geom_bond_atom_site_label_2
_geom_bond_distance
_geom_bond_site_symmetry_2
_ccdc_geom_bond_type
Yb0    O5      2.143   .     S
Yb0    O8      2.069   .     S
Yb0    O3      2.069   1_654 S
Yb0    O4      2.122   1_554 S
Yb0    O7      2.124   1_554 S
Yb0    O12     2.179   1_655 S
Yb1    O13     2.197   .     S
Yb1    O16     2.135   .     S
Yb1    O6      2.157   1_455 S
Yb1    O9      2.136   1_456 S
Yb1    O10     2.071   1_556 S
Yb1    O14     2.075   1_556 S
C2     O16     1.293   .     A
C2     O14     1.283   1_556 A
C2     C22     1.467   1_456 S
O3     Yb0     2.069   1_456 S
O3     C11     1.287   1_455 A
O4     C11     1.296   .     A
O4     Yb0     2.122   1_556 S
O5     C15     1.266   1_545 A
O6     Yb1     2.157   1_655 S
O6     C15     1.263   1_556 A
O7     Yb0     2.124   1_556 S
O7     C17     1.296   1_556 A
O8     C17     1.287   .     A
O9     Yb1     2.136   1_654 S
O9     C18     1.293   1_655 A
O10    C18     1.283   .     A
O10    Yb1     2.071   1_554 S
C11    O3      1.287   1_655 A
C11    C40     1.465   1_645 S
O12    Yb0     2.179   1_455 S
O12    C19     1.281   1_554 A
O13    C19     1.278   1_565 A
O14    Yb1     2.075   1_554 S
O14    C2      1.283   1_554 A
C15    O5      1.266   1_565 A
C15    O6      1.263   1_554 A
C15    C32     1.465   1_554 S
C17    C24     1.468   .     S
C17    O7      1.296   1_554 A
C18    C38     1.465   .     S
C18    O9      1.293   1_455 A
C19    O12     1.281   1_556 A
C19    O13     1.278   1_545 A
C19    C30     1.466   1_545 S
N20    N21     1.315   .     A
N20    C24     1.346   .     A
N20    H26     1.045   .     S
N21    C22     1.346   .     A
N21    H27     1.045   .     S
C22    C23     1.392   1_654 A
C22    C2      1.467   1_654 S
C23    H25     1.082   .     S
C23    C22     1.392   1_456 A
C23    C24     1.393   1_456 A
C24    C23     1.393   1_654 A
N28    N29     1.316   .     A
N28    C32     1.346   .     A
N28    H34     1.045   .     S
N29    C30     1.344   .     A
N29    H35     1.045   .     S
C30    C31     1.392   1_566 A
C30    C19     1.466   1_565 S
C31    H33     1.082   .     S
C31    C30     1.392   1_544 A
C31    C32     1.391   1_544 A
C32    C31     1.391   1_566 A
C32    C15     1.465   1_556 S
N36    N37     1.314   .     A
N36    C40     1.344   .     A
N36    H42     1.043   .     S
N37    C38     1.345   .     A
N37    H43     1.045   .     S
C38    C39     1.393   1_465 A
C39    H41     1.082   .     S
C39    C38     1.393   1_645 A
C39    C40     1.393   1_645 A
C40    C39     1.393   1_465 A
C40    C11     1.465   1_465 S
