data_pcu+N139+E220
_audit_creation_date              2023-11-17
_audit_creation_method            'Materials Studio'
_symmetry_space_group_name_H-M    'P1'
_symmetry_Int_Tables_number       1
_symmetry_cell_setting            triclinic
loop_
_symmetry_equiv_pos_as_xyz
  x,y,z
_cell_length_a                    13.7853
_cell_length_b                    9.2627
_cell_length_c                    14.1870
_cell_angle_alpha                 129.6452
_cell_angle_beta                  84.0712
_cell_angle_gamma                 94.2233
loop_
_atom_site_label
_atom_site_type_symbol
_atom_site_fract_x
_atom_site_fract_y
_atom_site_fract_z
_atom_site_U_iso_or_equiv
_atom_site_adp_type
_atom_site_occupancy
C0     C     0.04241   0.06099   0.32113   0.00000  Uiso   1.00
Sm1    Sm    0.87365  -0.04885   0.85942   0.00000  Uiso   1.00
Sm2    Sm    0.08754   1.09922   0.15282   0.00000  Uiso   1.00
C3     C     1.03110   0.25749   0.03211   0.00000  Uiso   1.00
C4     C     0.27427   1.05513   0.07776   0.00000  Uiso   1.00
O5     O    -0.05027   0.83886   0.67869   0.00000  Uiso   1.00
O6     O     0.87510   0.10423   0.78668   0.00000  Uiso   1.00
O7     O    -0.05472   0.96969   0.06399   0.00000  Uiso   1.00
O8     O     0.88706   0.74039   0.88873   0.00000  Uiso   1.00
O9     O     0.75055   0.08849   0.00331   0.00000  Uiso   1.00
O10    O     0.71932   0.86827   0.81383   0.00000  Uiso   1.00
O11    O     1.01760   0.20497   0.33526   0.00000  Uiso   1.00
O12    O     0.09034   0.93828   0.21921   0.00000  Uiso   1.00
O13    O     1.01448   0.08318   0.95162   0.00000  Uiso   1.00
O14    O     0.07117   0.31341   0.12736   0.00000  Uiso   1.00
O15    O     0.20666   0.96222   1.00383   0.00000  Uiso   1.00
O16    O     0.24382   0.17369   0.19125   0.00000  Uiso   1.00
C17    C     0.92614   0.97924   0.68806   0.00000  Uiso   1.00
C18    C    -0.07096   0.79531   0.98259   0.00000  Uiso   1.00
C19    C     0.68579  -0.01284   0.92600   0.00000  Uiso   1.00
C20    C     0.96081   0.65889  -0.00641   0.00000  Uiso   1.00
C21    C     1.02335   0.50760   0.90232   0.00000  Uiso   1.00
C22    C     1.04284   0.37412   0.91527   0.00000  Uiso   1.00
C23    C     0.00374   0.39183   1.01740   0.00000  Uiso   1.00
C24    C    -0.05553   0.54411   0.10821   0.00000  Uiso   1.00
C25    C    -0.07788   0.67500   0.09546   0.00000  Uiso   1.00
O26    O     1.11288   0.33516   0.70737   0.00000  Uiso   1.00
O27    O     1.08257   0.63583   0.80463   0.00000  Uiso   1.00
N28    N     1.07039   0.49070   0.79984   0.00000  Uiso   1.00
H29    H    -0.08504   0.56085   0.18845   0.00000  Uiso   1.00
H30    H    -0.12594   0.78962   0.16545   0.00000  Uiso   1.00
H31    H     1.09110   0.25842   0.84745   0.00000  Uiso   1.00
C32    C     0.37946   1.03007   1.03623   0.00000  Uiso   1.00
C33    C     0.41436  -0.11917   0.91415   0.00000  Uiso   1.00
C34    C     0.51411  -0.12829   0.87871   0.00000  Uiso   1.00
C35    C     0.58054   0.00400  -0.03661   0.00000  Uiso   1.00
C36    C     0.54604   1.14891   0.08451   0.00000  Uiso   1.00
C37    C     0.44671   1.16233   0.12024   0.00000  Uiso   1.00
O38    O     0.35767  -0.32501   0.71478   0.00000  Uiso   1.00
O39    O     0.30249   0.63234   0.84987   0.00000  Uiso   1.00
N40    N     0.35108  -0.26670   0.82638   0.00000  Uiso   1.00
H41    H     0.59585   1.25274   0.15170   0.00000  Uiso   1.00
H42    H     0.42241   1.27781   0.21413   0.00000  Uiso   1.00
H43    H     0.54015  -0.24330   0.78546   0.00000  Uiso   1.00
C44    C     1.01522   1.03656   0.41396   0.00000  Uiso   1.00
C45    C     0.06678   0.91638   0.42042   0.00000  Uiso   1.00
C46    C     0.03608   0.89700   0.50930   0.00000  Uiso   1.00
C47    C    -0.04383  -0.00271   0.59326   0.00000  Uiso   1.00
C48    C     0.90689   0.11921   0.58845   0.00000  Uiso   1.00
C49    C     0.93582   0.13792   0.49949   0.00000  Uiso   1.00
O50    O     0.23419   0.85196   0.39543   0.00000  Uiso   1.00
O51    O     0.14918   0.68259   0.22825   0.00000  Uiso   1.00
N52    N     0.15413   0.82376   0.34436   0.00000  Uiso   1.00
H53    H     0.84543   0.19931   0.65308   0.00000  Uiso   1.00
H54    H     0.89548   0.23162   0.49727   0.00000  Uiso   1.00
H55    H     0.07624   0.80594   0.51419   0.00000  Uiso   1.00
loop_
_geom_bond_atom_site_label_1
_geom_bond_atom_site_label_2
_geom_bond_distance
_geom_bond_site_symmetry_2
_ccdc_geom_bond_type
C0     O11     1.284   1_455 A
C0     O12     1.279   1_545 A
C0     C44     1.481   1_445 S
Sm1    O6      2.221   .     S
Sm1    O13     2.260   .     S
Sm1    O5      2.227   1_645 S
Sm1    O8      2.263   1_545 S
Sm1    O9      2.226   1_556 S
Sm1    O10     2.223   1_545 S
Sm2    O7      2.260   .     S
Sm2    O12     2.218   .     S
Sm2    O11     2.231   1_465 S
Sm2    O14     2.261   1_565 S
Sm2    O15     2.223   1_554 S
Sm2    O16     2.227   1_565 S
C3     O13     1.269   1_554 A
C3     O14     1.272   1_655 A
C3     C23     1.467   1_654 S
C4     O15     1.281   1_554 A
C4     O16     1.283   1_565 A
C4     C32     1.484   1_554 S
O5     Sm1     2.227   1_465 S
O5     C17     1.283   1_455 A
O6     C17     1.282   1_545 A
O7     C18     1.270   1_554 A
O8     Sm1     2.263   1_565 S
O8     C18     1.272   1_655 A
O9     Sm1     2.226   1_554 S
O9     C19     1.283   1_554 A
O10    Sm1     2.223   1_565 S
O10    C19     1.283   1_565 A
O11    C0      1.284   1_655 A
O11    Sm2     2.231   1_645 S
O12    C0      1.279   1_565 A
O13    C3      1.269   1_556 A
O14    Sm2     2.261   1_545 S
O14    C3      1.272   1_455 A
O15    Sm2     2.223   1_556 S
O15    C4      1.281   1_556 A
O16    Sm2     2.227   1_545 S
O16    C4      1.283   1_545 A
C17    O5      1.283   1_655 A
C17    O6      1.282   1_565 A
C17    C47     1.473   1_665 S
C18    O7      1.270   1_556 A
C18    O8      1.272   1_455 A
C18    C20     1.470   1_456 S
C19    O9      1.283   1_556 A
C19    O10     1.283   1_545 A
C19    C35     1.476   1_556 S
C20    C21     1.420   1_554 A
C20    C25     1.405   1_655 A
C20    C18     1.470   1_654 S
C21    C22     1.408   .     A
C21    N28     1.445   .     S
C21    C20     1.420   1_556 A
C22    H31     1.083   .     S
C22    C23     1.402   1_655 A
C23    C22     1.402   1_455 A
C23    C24     1.397   1_556 A
C23    C3      1.467   1_456 S
C24    C25     1.394   .     A
C24    H29     1.083   .     S
C24    C23     1.397   1_554 A
C25    H30     1.084   .     S
C25    C20     1.405   1_455 A
O26    N28     1.301   .     A
O27    N28     1.301   .     A
C32    C33     1.419   1_565 A
C32    C37     1.407   1_556 A
C32    C4      1.484   1_556 S
C33    C34     1.404   .     A
C33    N40     1.434   .     S
C33    C32     1.419   1_545 A
C34    H43     1.083   .     S
C34    C35     1.402   1_556 A
C35    C34     1.402   1_554 A
C35    C36     1.401   1_545 A
C35    C19     1.476   1_554 S
C36    C37     1.396   .     A
C36    H41     1.083   .     S
C36    C35     1.401   1_565 A
C37    H42     1.083   .     S
C37    C32     1.407   1_554 A
O38    N40     1.301   .     A
O39    N40     1.301   1_565 A
N40    O39     1.301   1_545 A
C44    C45     1.419   1_655 A
C44    C49     1.405   1_565 A
C44    C0      1.481   1_665 S
C45    C46     1.403   .     A
C45    N52     1.433   .     S
C45    C44     1.419   1_455 A
C46    H55     1.084   .     S
C46    C47     1.401   1_565 A
C47    C46     1.401   1_545 A
C47    C48     1.401   1_455 A
C47    C17     1.473   1_445 S
C48    C49     1.395   .     A
C48    H53     1.083   .     S
C48    C47     1.401   1_655 A
C49    H54     1.083   .     S
C49    C44     1.405   1_545 A
O50    N52     1.301   .     A
O51    N52     1.300   .     A
