data_pcu+N123+E220
_audit_creation_date              2023-11-17
_audit_creation_method            'Materials Studio'
_symmetry_space_group_name_H-M    'P1'
_symmetry_Int_Tables_number       1
_symmetry_cell_setting            triclinic
loop_
_symmetry_equiv_pos_as_xyz
  x,y,z
_cell_length_a                    14.2301
_cell_length_b                    11.5928
_cell_length_c                    10.5818
_cell_angle_alpha                 99.3543
_cell_angle_beta                  90.0439
_cell_angle_gamma                 90.0410
loop_
_atom_site_label
_atom_site_type_symbol
_atom_site_fract_x
_atom_site_fract_y
_atom_site_fract_z
_atom_site_U_iso_or_equiv
_atom_site_adp_type
_atom_site_occupancy
Ce0    Ce    0.09914   0.98047   0.98460   0.00000  Uiso   1.00
Ce1    Ce    0.88474  -0.02062  -0.01088   0.00000  Uiso   1.00
C2     C     0.96560   1.02308   0.76208   0.00000  Uiso   1.00
C3     C     0.28864   0.98843   0.99359   0.00000  Uiso   1.00
C4     C     0.99442   0.73040  -0.01433   0.00000  Uiso   1.00
C5     C     0.06667   0.02024   0.23674   0.00000  Uiso   1.00
C6     C     0.69531  -0.01415  -0.00861   0.00000  Uiso   1.00
C7     C    -0.00559   0.23149   0.99526   0.00000  Uiso   1.00
O8     O     0.90251   0.08040   0.81622   0.00000  Uiso   1.00
O9     O    -0.00705   0.93654   0.82721   0.00000  Uiso   1.00
O10    O     0.24242   0.96629   0.88872   0.00000  Uiso   1.00
O11    O     0.23780   1.00439   0.09455   0.00000  Uiso   1.00
O12    O     0.07460   0.78531  -0.00706   0.00000  Uiso   1.00
O13    O     0.91299   0.78143  -0.01834   0.00000  Uiso   1.00
O14    O     0.14706   1.01977   0.19511   0.00000  Uiso   1.00
O15    O     0.99733   0.00467   0.14238   0.00000  Uiso   1.00
O16    O     0.74487   0.01335   0.09255   0.00000  Uiso   1.00
O17    O     0.74256  -0.04512   0.88898   0.00000  Uiso   1.00
O18    O     0.91365   0.17909   0.99931   0.00000  Uiso   1.00
O19    O     0.07436   0.17697   0.98512   0.00000  Uiso   1.00
C20    C     0.99587   0.60183   0.98402   0.00000  Uiso   1.00
C21    C     0.07803   0.53381   0.95331   0.00000  Uiso   1.00
C22    C     0.07707   0.41438   0.96165   0.00000  Uiso   1.00
C23    C    -0.00495   0.35923  -0.00498   0.00000  Uiso   1.00
C24    C     0.91345   0.42622   0.02268   0.00000  Uiso   1.00
C25    C     0.91409   0.54596   0.01811   0.00000  Uiso   1.00
O26    O     0.24323   0.55824   0.95133   0.00000  Uiso   1.00
O27    O     0.15765   0.63026   0.80382   0.00000  Uiso   1.00
N28    N     0.16156   0.58219   0.90685   0.00000  Uiso   1.00
H29    H     0.84898   0.38637   0.04863   0.00000  Uiso   1.00
H30    H     0.85019   0.59516   0.04235   0.00000  Uiso   1.00
H31    H     0.14018   0.36369   0.93677   0.00000  Uiso   1.00
C32    C     0.39274  -0.00607   0.99626   0.00000  Uiso   1.00
C33    C     0.44455   0.04872   0.10448   0.00000  Uiso   1.00
C34    C     0.54334   0.04340   0.10204   0.00000  Uiso   1.00
C35    C     0.59158   0.98928  -0.00713   0.00000  Uiso   1.00
C36    C     0.54008   0.93900   0.88507   0.00000  Uiso   1.00
C37    C     0.44202   0.94033   0.88717   0.00000  Uiso   1.00
O38    O     0.43588   0.11405   0.32808   0.00000  Uiso   1.00
O39    O     0.33473   0.18965   0.20187   0.00000  Uiso   1.00
N40    N     0.39942   0.11341   0.21532   0.00000  Uiso   1.00
H41    H     0.57556   0.89695   0.79941   0.00000  Uiso   1.00
H42    H     0.40470   0.89762   0.80300   0.00000  Uiso   1.00
H43    H     0.58258   0.08413   0.18513   0.00000  Uiso   1.00
C44    C     1.04459   1.02199   0.37278   0.00000  Uiso   1.00
C45    C    -0.00862   0.92993   0.40871   0.00000  Uiso   1.00
C46    C    -0.03409   0.93333   0.53639   0.00000  Uiso   1.00
C47    C    -0.00708   0.02682   0.62961   0.00000  Uiso   1.00
C48    C     1.04626   0.11840   0.59500   0.00000  Uiso   1.00
C49    C     1.07291   0.11539   0.46675   0.00000  Uiso   1.00
O50    O     0.03658   0.76005   0.26816   0.00000  Uiso   1.00
O51    O    -0.11782   0.79380   0.30093   0.00000  Uiso   1.00
N52    N    -0.03094   0.82822   0.31790   0.00000  Uiso   1.00
H53    H     1.06780   0.19100   0.66690   0.00000  Uiso   1.00
H54    H     1.11394   0.18654   0.44046   0.00000  Uiso   1.00
H55    H    -0.07396   0.86142   0.56340   0.00000  Uiso   1.00
loop_
_geom_bond_atom_site_label_1
_geom_bond_atom_site_label_2
_geom_bond_distance
_geom_bond_site_symmetry_2
_ccdc_geom_bond_type
Ce0    O9      2.244   .     S
Ce0    O10     2.272   .     S
Ce0    O11     2.284   1_556 S
Ce0    O12     2.305   1_556 S
Ce0    O14     2.303   1_556 S
Ce0    O15     2.195   1_466 S
Ce0    O19     2.305   1_565 S
Ce1    O15     2.264   .     S
Ce1    O16     2.276   .     S
Ce1    O8      2.341   1_554 S
Ce1    O9      2.298   1_644 S
Ce1    O13     2.319   1_545 S
Ce1    O17     2.279   1_554 S
Ce1    O18     2.336   1_554 S
C2     O8      1.206   1_565 D
C2     O9      1.363   1_655 S
C2     C47     1.462   1_665 S
C3     O10     1.279   .     A
C3     O11     1.279   1_556 A
C3     C32     1.483   1_565 S
C4     O13     1.305   .     A
C4     O12     1.302   1_655 A
C4     C20     1.488   1_554 S
C5     O14     1.226   1_545 D
C5     O15     1.394   1_455 S
C5     C44     1.471   1_445 S
C6     O16     1.278   .     A
C6     O17     1.277   1_554 A
C6     C35     1.477   1_545 S
C7     O19     1.298   .     A
C7     O18     1.304   1_455 A
C7     C23     1.481   1_556 S
O8     Ce1     2.341   1_556 S
O8     C2      1.206   1_545 D
O9     Ce1     2.298   1_466 S
O9     C2      1.363   1_455 S
O11    Ce0     2.284   1_554 S
O11    C3      1.279   1_554 A
O12    Ce0     2.305   1_554 S
O12    C4      1.302   1_455 A
O13    Ce1     2.319   1_565 S
O14    Ce0     2.303   1_554 S
O14    C5      1.226   1_565 D
O15    Ce0     2.195   1_644 S
O15    C5      1.394   1_655 S
O17    Ce1     2.279   1_556 S
O17    C6      1.277   1_556 A
O18    Ce1     2.336   1_556 S
O18    C7      1.304   1_655 A
O19    Ce0     2.305   1_545 S
C20    C21     1.419   1_655 A
C20    C25     1.407   1_556 A
C20    C4      1.488   1_556 S
C21    C22     1.402   .     A
C21    N28     1.435   .     S
C21    C20     1.419   1_455 A
C22    H31     1.083   .     S
C22    C23     1.403   1_556 A
C23    C22     1.403   1_554 A
C23    C24     1.402   1_455 A
C23    C7      1.481   1_554 S
C24    C25     1.397   .     A
C24    H29     1.082   .     S
C24    C23     1.402   1_655 A
C25    H30     1.082   .     S
C25    C20     1.407   1_554 A
O26    N28     1.301   .     A
O27    N28     1.304   .     A
C32    C33     1.421   1_556 A
C32    C37     1.407   1_545 A
C32    C3      1.483   1_545 S
C33    C34     1.407   .     A
C33    N40     1.437   .     S
C33    C32     1.421   1_554 A
C34    H43     1.082   .     S
C34    C35     1.402   1_545 A
C35    C34     1.402   1_565 A
C35    C36     1.400   1_554 A
C35    C6      1.477   1_565 S
C36    C37     1.396   .     A
C36    H41     1.082   .     S
C36    C35     1.400   1_556 A
C37    H42     1.084   .     S
C37    C32     1.407   1_565 A
O38    N40     1.300   .     A
O39    N40     1.300   .     A
C44    C45     1.410   1_655 A
C44    C49     1.404   1_565 A
C44    C5      1.471   1_665 S
C45    C46     1.393   .     A
C45    N52     1.430   .     S
C45    C44     1.410   1_455 A
C46    H55     1.084   .     S
C46    C47     1.395   1_565 A
C47    C46     1.395   1_545 A
C47    C48     1.401   1_455 A
C47    C2      1.462   1_445 S
C48    C49     1.404   .     A
C48    H53     1.083   .     S
C48    C47     1.401   1_655 A
C49    H54     1.083   .     S
C49    C44     1.404   1_545 A
O50    N52     1.300   .     A
O51    N52     1.302   .     A
