data_pcu+N394+E1
_audit_creation_date              2023-11-17
_audit_creation_method            'Materials Studio'
_symmetry_space_group_name_H-M    'P1'
_symmetry_Int_Tables_number       1
_symmetry_cell_setting            triclinic
loop_
_symmetry_equiv_pos_as_xyz
  x,y,z
_cell_length_a                    22.9688
_cell_length_b                    20.1929
_cell_length_c                    18.4681
_cell_angle_alpha                 71.4169
_cell_angle_beta                  110.7766
_cell_angle_gamma                 89.6909
loop_
_atom_site_label
_atom_site_type_symbol
_atom_site_fract_x
_atom_site_fract_y
_atom_site_fract_z
_atom_site_U_iso_or_equiv
_atom_site_adp_type
_atom_site_occupancy
Pr0    Pr    0.07087   0.99622  -0.00118   0.00000  Uiso   1.00
Pr1    Pr    0.93299  -0.00282   1.00307   0.00000  Uiso   1.00
O2     O     0.95165   0.11001   1.00138   0.00000  Uiso   1.00
O3     O     0.05172   0.10937  -0.00049   0.00000  Uiso   1.00
O4     O     0.13961   0.02816   0.93496   0.00000  Uiso   1.00
O5     O     0.17646   0.96606   0.06413   0.00000  Uiso   1.00
O6     O     1.03005   0.95225   0.09635   0.00000  Uiso   1.00
O7     O     0.09018   1.02984   0.11360   0.00000  Uiso   1.00
C8     C     0.94659   0.00071   0.85923   0.00000  Uiso   1.00
C9     C     1.00134   0.14026  -0.00081   0.00000  Uiso   1.00
C10    C     0.18810  -0.00267   0.99973   0.00000  Uiso   1.00
C11    C     0.81571  -0.00387   0.00203   0.00000  Uiso   1.00
C12    C     0.00246   0.85322   1.00245   0.00000  Uiso   1.00
C13    C     0.05721   0.99289   0.14255   0.00000  Uiso   1.00
O14    O     0.05211   0.88352   0.00019   0.00000  Uiso   1.00
O15    O     0.95215   0.88401   1.00237   0.00000  Uiso   1.00
O16    O     0.86419   0.96529   0.06684   0.00000  Uiso   1.00
O17    O     0.82740   0.02734   0.93767   0.00000  Uiso   1.00
O18    O    -0.02617   0.04122   0.90556   0.00000  Uiso   1.00
O19    O     0.91357  -0.03619   0.88810   0.00000  Uiso   1.00
C20    C     1.00216   0.63993   1.00184   0.00000  Uiso   1.00
C21    C     0.94792   0.67739   0.99581   0.00000  Uiso   1.00
C22    C     0.94801   0.74647   0.99627   0.00000  Uiso   1.00
C23    C     1.00240   0.77968   1.00275   0.00000  Uiso   1.00
C24    C     1.05671   0.74200   0.00904   0.00000  Uiso   1.00
C25    C     1.05655   0.67298   0.00851   0.00000  Uiso   1.00
C26    C     1.00200   0.56669   1.00098   0.00000  Uiso   1.00
C27    C     1.05363   0.51497   0.05491   0.00000  Uiso   1.00
C28    C     1.05352   0.44601   0.05412   0.00000  Uiso   1.00
C29    C     1.00184   0.42730   0.99916   0.00000  Uiso   1.00
C30    C     0.95026   0.47911   0.94507   0.00000  Uiso   1.00
C31    C     0.95033   0.54804   0.94600   0.00000  Uiso   1.00
C32    C     1.00162   0.35395   0.99852   0.00000  Uiso   1.00
C33    C     0.94685   0.32139   0.99041   0.00000  Uiso   1.00
C34    C     0.94672   0.25219   0.99043   0.00000  Uiso   1.00
C35    C     1.00139   0.21386   0.99861   0.00000  Uiso   1.00
C36    C     1.05610   0.24659   0.00641   0.00000  Uiso   1.00
C37    C     1.05623   0.31578   0.00649   0.00000  Uiso   1.00
H38    H     0.90554   0.65297   0.99160   0.00000  Uiso   1.00
H39    H     0.90532   0.77387   0.99125   0.00000  Uiso   1.00
H40    H     1.09943   0.76588   0.01401   0.00000  Uiso   1.00
H41    H     1.09878   0.64582   0.01204   0.00000  Uiso   1.00
H42    H     1.09375   0.52758   0.09867   0.00000  Uiso   1.00
H43    H     1.09351   0.40702   0.09743   0.00000  Uiso   1.00
H44    H     0.91019   0.46659   0.90111   0.00000  Uiso   1.00
H45    H     0.91033   0.58707   0.90277   0.00000  Uiso   1.00
H46    H     0.90427   0.34907   0.98530   0.00000  Uiso   1.00
H47    H     0.90375   0.22868   0.98437   0.00000  Uiso   1.00
H48    H     1.09909   0.21867   0.01294   0.00000  Uiso   1.00
H49    H     1.09896   0.33969   0.01193   0.00000  Uiso   1.00
C50    C     0.37557   0.99763   0.00046   0.00000  Uiso   1.00
C51    C     0.32383   1.03471   0.92844   0.00000  Uiso   1.00
C52    C     0.26291   1.03466   0.92822   0.00000  Uiso   1.00
C53    C     0.25248   0.99765   0.00006   0.00000  Uiso   1.00
C54    C     0.30409  -0.03923   0.07214   0.00000  Uiso   1.00
C55    C     0.36501   0.96074   0.07235   0.00000  Uiso   1.00
C56    C     0.44028   0.99732   0.00056   0.00000  Uiso   1.00
C57    C     0.49072   1.00261   0.06826   0.00000  Uiso   1.00
C58    C     0.55161   1.00216   0.06842   0.00000  Uiso   1.00
C59    C     0.56347   0.99641   0.00090   0.00000  Uiso   1.00
C60    C     0.51302   0.99115   0.93318   0.00000  Uiso   1.00
C61    C     0.45214   0.99159   0.93303   0.00000  Uiso   1.00
C62    C     0.62817   0.99602   0.00106   0.00000  Uiso   1.00
C63    C     0.63882   1.03318   0.92932   0.00000  Uiso   1.00
C64    C     0.69977   1.03310   0.92962   0.00000  Uiso   1.00
C65    C     0.75130   0.99586   0.00161   0.00000  Uiso   1.00
C66    C     0.74077  -0.04142   0.07329   0.00000  Uiso   1.00
C67    C     0.67982   0.95860   0.07298   0.00000  Uiso   1.00
H68    H     0.33051   1.06446   0.87242   0.00000  Uiso   1.00
H69    H     0.22399   1.06378   0.87186   0.00000  Uiso   1.00
H70    H     0.29736  -0.06842   0.12832   0.00000  Uiso   1.00
H71    H     0.40378   0.93092   0.12850   0.00000  Uiso   1.00
H72    H     0.48295   1.00821   0.12064   0.00000  Uiso   1.00
H73    H     0.58931   1.00745   0.12090   0.00000  Uiso   1.00
H74    H     0.52081   0.98558   0.88079   0.00000  Uiso   1.00
H75    H     0.41445   0.98628   0.88055   0.00000  Uiso   1.00
H76    H     0.60010   1.06325   0.87326   0.00000  Uiso   1.00
H77    H     0.70657   1.06250   0.87357   0.00000  Uiso   1.00
H78    H     0.77962  -0.07085   0.12957   0.00000  Uiso   1.00
H79    H     0.67304   0.92864   0.12885   0.00000  Uiso   1.00
C80    C     0.02439   0.99508   0.35665   0.00000  Uiso   1.00
C81    C     1.06233   0.04145   0.32597   0.00000  Uiso   1.00
C82    C     1.07345   0.04040   0.25668   0.00000  Uiso   1.00
C83    C     0.04669   0.99317   0.21660   0.00000  Uiso   1.00
C84    C     0.00865   0.94702   0.24680   0.00000  Uiso   1.00
C85    C    -0.00230   0.94783   0.31631   0.00000  Uiso   1.00
C86    C     0.01272   0.99603   0.43043   0.00000  Uiso   1.00
C87    C     0.01276   0.93270   0.49109   0.00000  Uiso   1.00
C88    C     0.00194   0.93356   0.56065   0.00000  Uiso   1.00
C89    C    -0.00911   0.99776   0.57116   0.00000  Uiso   1.00
C90    C    -0.00916   0.06109   0.51051   0.00000  Uiso   1.00
C91    C     0.00161   0.06023   0.44091   0.00000  Uiso   1.00
C92    C    -0.02074   0.99868   0.64497   0.00000  Uiso   1.00
C93    C     1.00644   0.04550   0.68578   0.00000  Uiso   1.00
C94    C     0.99553   0.04627   0.75532   0.00000  Uiso   1.00
C95    C    -0.04295   1.00054   0.78510   0.00000  Uiso   1.00
C96    C    -0.07020   0.95375   0.74453   0.00000  Uiso   1.00
C97    C    -0.05916   0.95279   0.67515   0.00000  Uiso   1.00
H98    H     1.08408   0.07792   0.35621   0.00000  Uiso   1.00
H99    H     1.10274   0.07678   0.23419   0.00000  Uiso   1.00
H100   H    -0.01282   0.91044   0.21653   0.00000  Uiso   1.00
H101   H    -0.03245   0.91219   0.33776   0.00000  Uiso   1.00
H102   H     0.02213   0.88238   0.48538   0.00000  Uiso   1.00
H103   H     0.00321   0.88388   0.60694   0.00000  Uiso   1.00
H104   H     0.98152   0.11140   0.51630   0.00000  Uiso   1.00
H105   H     1.00028   0.10992   0.39461   0.00000  Uiso   1.00
H106   H     1.03693   0.08079   0.66464   0.00000  Uiso   1.00
H107   H     1.01739   0.08247   0.78599   0.00000  Uiso   1.00
H108   H    -0.09988   0.91773   0.76663   0.00000  Uiso   1.00
H109   H    -0.08129   0.91671   0.64450   0.00000  Uiso   1.00
loop_
_geom_bond_atom_site_label_1
_geom_bond_atom_site_label_2
_geom_bond_distance
_geom_bond_site_symmetry_2
_ccdc_geom_bond_type
Pr0    O5      2.269   .     S
Pr0    O7      2.325   .     S
Pr0    O14     2.312   .     S
Pr0    O3      2.329   1_565 S
Pr0    O4      2.269   1_564 S
Pr0    O6      2.258   1_455 S
Pr0    O18     2.240   1_564 S
Pr1    O2      2.313   .     S
Pr1    O17     2.269   .     S
Pr1    O19     2.325   .     S
Pr1    O6      2.240   1_546 S
Pr1    O15     2.330   1_545 S
Pr1    O16     2.269   1_546 S
Pr1    O18     2.258   1_655 S
O2     C9      1.305   1_556 A
O3     Pr0     2.329   1_545 S
O3     C9      1.309   1_455 A
O4     C10     1.277   .     A
O4     Pr0     2.269   1_546 S
O5     C10     1.278   1_564 A
O6     Pr0     2.258   1_655 S
O6     Pr1     2.240   1_564 S
O6     C13     1.365   1_655 S
O7     C13     1.206   .     D
C8     O19     1.206   .     D
C8     O18     1.365   1_655 S
C8     C95     1.473   1_645 S
C9     O2      1.305   1_554 A
C9     O3      1.309   1_655 A
C9     C35     1.483   1_554 S
C10    O5      1.278   1_546 A
C10    C53     1.477   1_546 S
C11    O16     1.278   1_545 A
C11    O17     1.278   1_554 A
C11    C65     1.477   1_545 S
C12    O14     1.305   1_556 A
C12    O15     1.309   1_455 A
C12    C23     1.483   1_455 S
C13    C83     1.472   .     S
C13    O6      1.365   1_455 S
O14    C12     1.305   1_554 A
O15    Pr1     2.330   1_565 S
O15    C12     1.309   1_655 A
O16    Pr1     2.269   1_564 S
O16    C11     1.278   1_565 A
O17    C11     1.278   1_556 A
O18    Pr0     2.240   1_546 S
O18    Pr1     2.258   1_455 S
O18    C8      1.365   1_455 S
C20    C21     1.405   .     A
C20    C26     1.484   .     S
C20    C25     1.405   1_556 A
C21    C22     1.398   .     A
C21    H38     1.083   .     S
C22    C23     1.407   .     A
C22    H39     1.083   .     S
C23    C24     1.407   1_556 A
C23    C12     1.483   1_655 S
C24    C25     1.397   .     A
C24    H40     1.083   .     S
C24    C23     1.407   1_554 A
C25    H41     1.083   .     S
C25    C20     1.405   1_554 A
C26    C31     1.406   .     A
C26    C27     1.405   1_556 A
C27    C28     1.397   .     A
C27    H42     1.083   .     S
C27    C26     1.405   1_554 A
C28    H43     1.083   .     S
C28    C29     1.406   1_554 A
C29    C30     1.406   .     A
C29    C32     1.485   .     S
C29    C28     1.406   1_556 A
C30    C31     1.397   .     A
C30    H44     1.083   .     S
C31    H45     1.083   .     S
C32    C33     1.405   .     A
C32    C37     1.406   1_556 A
C33    C34     1.397   .     A
C33    H46     1.083   .     S
C34    C35     1.407   .     A
C34    H47     1.083   .     S
C35    C36     1.407   1_556 A
C35    C9      1.483   1_556 S
C36    C37     1.398   .     A
C36    H48     1.083   .     S
C36    C35     1.407   1_554 A
C37    H49     1.083   .     S
C37    C32     1.406   1_554 A
C50    C55     1.406   .     A
C50    C56     1.486   .     S
C50    C51     1.406   1_554 A
C51    C52     1.398   .     A
C51    H68     1.083   .     S
C51    C50     1.406   1_556 A
C52    H69     1.083   .     S
C52    C53     1.404   1_556 A
C53    C52     1.404   1_554 A
C53    C54     1.404   1_565 A
C53    C10     1.477   1_564 S
C54    H70     1.083   .     S
C54    C53     1.404   1_545 A
C54    C55     1.398   1_545 A
C55    H71     1.083   .     S
C55    C54     1.398   1_565 A
C56    C57     1.406   .     A
C56    C61     1.406   1_554 A
C57    C58     1.397   .     A
C57    H72     1.083   .     S
C58    C59     1.405   .     A
C58    H73     1.083   .     S
C59    C62     1.485   .     S
C59    C60     1.406   1_554 A
C60    C61     1.397   .     A
C60    H74     1.083   .     S
C60    C59     1.406   1_556 A
C61    H75     1.083   .     S
C61    C56     1.406   1_556 A
C62    C67     1.405   .     A
C62    C63     1.406   1_554 A
C63    C64     1.398   .     A
C63    H76     1.083   .     S
C63    C62     1.406   1_556 A
C64    H77     1.083   .     S
C64    C65     1.404   1_556 A
C65    C64     1.404   1_554 A
C65    C66     1.404   1_565 A
C65    C11     1.477   1_565 S
C66    H78     1.083   .     S
C66    C65     1.404   1_545 A
C66    C67     1.398   1_545 A
C67    H79     1.083   .     S
C67    C66     1.398   1_565 A
C80    C85     1.406   .     A
C80    C86     1.485   .     S
C80    C81     1.406   1_465 A
C81    C82     1.397   .     A
C81    H98     1.083   .     S
C81    C80     1.406   1_645 A
C82    H99     1.083   .     S
C82    C83     1.403   1_645 A
C83    C84     1.402   .     A
C83    C82     1.403   1_465 A
C84    C85     1.398   .     A
C84    H100    1.083   .     S
C85    H101    1.083   .     S
C86    C87     1.406   .     A
C86    C91     1.405   1_565 A
C87    C88     1.397   .     A
C87    H102    1.083   .     S
C88    C89     1.405   .     A
C88    H103    1.083   .     S
C89    C92     1.485   .     S
C89    C90     1.406   1_565 A
C90    C91     1.398   .     A
C90    C89     1.406   1_545 A
C90    H104    1.083   1_455 S
C91    C86     1.405   1_545 A
C91    H105    1.083   1_455 S
C92    C97     1.406   .     A
C92    C93     1.406   1_465 A
C93    C94     1.398   .     A
C93    H106    1.083   .     S
C93    C92     1.406   1_645 A
C94    H107    1.083   .     S
C94    C95     1.402   1_645 A
C95    C96     1.404   .     A
C95    C94     1.402   1_465 A
C95    C8      1.473   1_465 S
C96    C97     1.397   .     A
C96    H108    1.083   .     S
C97    H109    1.083   .     S
H104   C90     1.083   1_655 S
H105   C91     1.083   1_655 S
