data_pcu+N144+E35
_audit_creation_date              2023-11-17
_audit_creation_method            'Materials Studio'
_symmetry_space_group_name_H-M    'P1'
_symmetry_Int_Tables_number       1
_symmetry_cell_setting            triclinic
loop_
_symmetry_equiv_pos_as_xyz
  x,y,z
_cell_length_a                    17.4196
_cell_length_b                    15.6571
_cell_length_c                    15.6680
_cell_angle_alpha                 91.8412
_cell_angle_beta                  103.5764
_cell_angle_gamma                 80.7638
loop_
_atom_site_label
_atom_site_type_symbol
_atom_site_fract_x
_atom_site_fract_y
_atom_site_fract_z
_atom_site_U_iso_or_equiv
_atom_site_adp_type
_atom_site_occupancy
C0     C     0.23111   0.00928   0.08021   0.00000  Uiso   1.00
Er1    Er    0.92427   0.99747   0.96442   0.00000  Uiso   1.00
Er2    Er    0.05952   0.97428  -0.00000   0.00000  Uiso   1.00
C3     C    -0.00397   0.98727   0.16363   0.00000  Uiso   1.00
O4     O     0.05696   0.11399  -0.00185   0.00000  Uiso   1.00
C5     C    -0.00889   0.80645  -0.02104   0.00000  Uiso   1.00
C6     C     0.99682   0.98275   0.80406   0.00000  Uiso   1.00
C7     C     0.78295   0.01795   1.00252   0.00000  Uiso   1.00
O8     O     0.19657   0.05787   0.12627   0.00000  Uiso   1.00
O9     O     0.19215  -0.05228   1.02896   0.00000  Uiso   1.00
O10    O     0.06133   0.96881   0.86260   0.00000  Uiso   1.00
O11    O     0.93071   0.99792   0.82695   0.00000  Uiso   1.00
O12    O     0.05721   0.83553   0.00009   0.00000  Uiso   1.00
O13    O     0.92581   0.85897   0.95919   0.00000  Uiso   1.00
C14    C     0.99079   0.16563  -0.01489   0.00000  Uiso   1.00
O15    O     0.92533   0.13547  -0.02933   0.00000  Uiso   1.00
O16    O     0.06081   0.97876   0.13823   0.00000  Uiso   1.00
O17    O     0.92916   0.99533   0.10653   0.00000  Uiso   1.00
O18    O     0.79394   0.01776   0.92582   0.00000  Uiso   1.00
O19    O     0.84864   0.00853   0.06033   0.00000  Uiso   1.00
C20    C    -0.01581   0.53452  -0.02045   0.00000  Uiso   1.00
C21    C     0.91382   0.59285  -0.05318   0.00000  Uiso   1.00
C22    C     0.91651   0.68122  -0.05342   0.00000  Uiso   1.00
C23    C    -0.01087   0.71228  -0.02243   0.00000  Uiso   1.00
C24    C     0.05861   0.65197   1.00754   0.00000  Uiso   1.00
N25    N     0.05441   0.56588   1.00790   0.00000  Uiso   1.00
C26    C    -0.01578   0.43988  -0.01724   0.00000  Uiso   1.00
N27    N     0.05407   0.38453   0.98783   0.00000  Uiso   1.00
C28    C     0.05820   0.29700   0.98982   0.00000  Uiso   1.00
C29    C    -0.01102   0.26043  -0.01384   0.00000  Uiso   1.00
C30    C     0.91681   0.31626  -0.01727   0.00000  Uiso   1.00
C31    C     0.91423   0.40555  -0.01830   0.00000  Uiso   1.00
H32    H     0.86155   0.72523  -0.07826   0.00000  Uiso   1.00
H33    H     0.11597   0.67313   1.03151   0.00000  Uiso   1.00
H34    H     0.11524   0.25623   0.99318   0.00000  Uiso   1.00
H35    H     0.86216   0.29099  -0.01876   0.00000  Uiso   1.00
H36    H     0.85713   0.57124  -0.07964   0.00000  Uiso   1.00
H37    H     0.85795   0.44650  -0.01871   0.00000  Uiso   1.00
C38    C     0.47027   0.02466   1.06489   0.00000  Uiso   1.00
C39    C     0.44060   0.06732   0.13355   0.00000  Uiso   1.00
C40    C     0.36238   0.06263   0.13926   0.00000  Uiso   1.00
C41    C     0.31438   0.01484   1.07738   0.00000  Uiso   1.00
C42    C     0.34663  -0.02695   1.01024   0.00000  Uiso   1.00
N43    N     0.42225  -0.02054   1.00546   0.00000  Uiso   1.00
C44    C     0.55119   0.02872   1.05268   0.00000  Uiso   1.00
N45    N     0.56349   0.01919   0.97006   0.00000  Uiso   1.00
C46    C     0.63640   0.01816   0.95281   0.00000  Uiso   1.00
C47    C     0.70313   0.02514   1.02137   0.00000  Uiso   1.00
C48    C     0.69223   0.03548   0.10721   0.00000  Uiso   1.00
C49    C     0.61620   0.03765   0.12321   0.00000  Uiso   1.00
H50    H     0.33949   0.09627   0.19179   0.00000  Uiso   1.00
H51    H     0.31161  -0.06391   0.96074   0.00000  Uiso   1.00
H52    H     0.64235   0.00986   0.88568   0.00000  Uiso   1.00
H53    H     0.74235   0.04114   0.16176   0.00000  Uiso   1.00
H54    H     0.47645   0.10535   0.18103   0.00000  Uiso   1.00
H55    H     0.60913   0.04355   0.19004   0.00000  Uiso   1.00
C56    C     0.00423   0.98489   0.43858   0.00000  Uiso   1.00
C57    C     0.07366  -0.00841   0.40992   0.00000  Uiso   1.00
C58    C     0.07069  -0.00757   0.32031   0.00000  Uiso   1.00
C59    C    -0.00131   0.98764   0.25871   0.00000  Uiso   1.00
C60    C     0.93023   0.98279   0.28982   0.00000  Uiso   1.00
N61    N     0.93466   0.98157   0.37766   0.00000  Uiso   1.00
C62    C     0.00436   0.98262   0.53313   0.00000  Uiso   1.00
N63    N     0.93435   1.00667   0.55844   0.00000  Uiso   1.00
C64    C     0.93011   1.00666   0.64409   0.00000  Uiso   1.00
C65    C    -0.00069   0.98149   0.71029   0.00000  Uiso   1.00
C66    C     0.07177  -0.04488   0.68553   0.00000  Uiso   1.00
C67    C     0.07451  -0.04495   0.59738   0.00000  Uiso   1.00
H68    H     0.12477  -0.00256   0.29928   0.00000  Uiso   1.00
H69    H     0.87358   0.97886   0.24462   0.00000  Uiso   1.00
H70    H     0.87291   1.02708   0.66029   0.00000  Uiso   1.00
H71    H     0.12643  -0.06600   0.73426   0.00000  Uiso   1.00
H72    H     0.12961  -0.00241   0.45563   0.00000  Uiso   1.00
H73    H     0.13090  -0.06774   0.58031   0.00000  Uiso   1.00
loop_
_geom_bond_atom_site_label_1
_geom_bond_atom_site_label_2
_geom_bond_distance
_geom_bond_site_symmetry_2
_ccdc_geom_bond_type
C0     O8      1.218   .     D
C0     O9      1.392   1_554 S
C0     C41     1.478   1_554 S
Er1    O11     2.183   .     S
Er1    O13     2.164   .     S
Er1    O15     2.163   1_566 S
Er1    O17     2.209   1_556 S
Er1    O18     2.181   1_565 S
Er1    O19     2.205   1_566 S
Er2    O12     2.179   .     S
Er2    O16     2.160   .     S
Er2    O4      2.182   1_565 S
Er2    O9      2.220   1_564 S
Er2    O10     2.159   1_554 S
C3     O16     1.268   .     A
C3     C59     1.479   .     S
C3     O17     1.282   1_455 A
O4     Er2     2.182   1_545 S
O4     C14     1.275   1_455 A
C5     O12     1.274   .     A
C5     C23     1.480   .     S
C5     O13     1.271   1_454 A
C6     O11     1.270   .     A
C6     O10     1.266   1_655 A
C6     C65     1.479   1_655 S
C7     O18     1.260   .     A
C7     C47     1.474   .     S
C7     O19     1.272   1_556 A
O9     C0      1.392   1_556 S
O9     Er2     2.220   1_546 S
O10    Er2     2.159   1_556 S
O10    C6      1.266   1_455 A
O13    C5      1.271   1_656 A
C14    O15     1.273   .     A
C14    O4      1.275   1_655 A
C14    C29     1.479   1_655 S
O15    Er1     2.163   1_544 S
O17    Er1     2.209   1_554 S
O17    C3      1.282   1_655 A
O18    Er1     2.181   1_545 S
O19    Er1     2.205   1_544 S
O19    C7      1.272   1_554 A
C20    C26     1.484   .     S
C20    C21     1.406   1_455 A
C20    N25     1.363   1_554 A
C21    C22     1.392   .     A
C21    H36     1.081   .     S
C21    C20     1.406   1_655 A
C22    H32     1.083   .     S
C22    C23     1.402   1_655 A
C23    C22     1.402   1_455 A
C23    C24     1.404   1_554 A
C24    N25     1.362   .     A
C24    H33     1.082   .     S
C24    C23     1.404   1_556 A
N25    C20     1.363   1_556 A
C26    N27     1.363   1_554 A
C26    C31     1.406   1_455 A
N27    C28     1.362   .     A
N27    C26     1.363   1_556 A
C28    H34     1.082   .     S
C28    C29     1.404   1_556 A
C29    C28     1.404   1_554 A
C29    C30     1.402   1_455 A
C29    C14     1.479   1_455 S
C30    C31     1.392   .     A
C30    H35     1.083   .     S
C30    C29     1.402   1_655 A
C31    H37     1.081   .     S
C31    C26     1.406   1_655 A
C38    N43     1.360   .     A
C38    C44     1.478   .     S
C38    C39     1.405   1_556 A
C39    C40     1.400   .     A
C39    H54     1.082   .     S
C39    C38     1.405   1_554 A
C40    H50     1.083   .     S
C40    C41     1.404   1_554 A
C41    C42     1.402   .     A
C41    C40     1.404   1_556 A
C41    C0      1.478   1_556 S
C42    N43     1.356   .     A
C42    H51     1.082   .     S
C44    N45     1.361   .     A
C44    C49     1.406   1_556 A
N45    C46     1.357   .     A
C46    C47     1.401   .     A
C46    H52     1.083   .     S
C47    C48     1.403   1_556 A
C48    C49     1.400   .     A
C48    H53     1.082   .     S
C48    C47     1.403   1_554 A
C49    H55     1.082   .     S
C49    C44     1.406   1_554 A
C56    C62     1.482   .     S
C56    C57     1.405   1_565 A
C56    N61     1.362   1_455 A
C57    C58     1.393   .     A
C57    H72     1.081   .     S
C57    C56     1.405   1_545 A
C58    H68     1.083   .     S
C58    C59     1.403   1_545 A
C59    C58     1.403   1_565 A
C59    C60     1.403   1_455 A
C60    N61     1.361   .     A
C60    H69     1.081   .     S
C60    C59     1.403   1_655 A
N61    C56     1.362   1_655 A
C62    N63     1.363   1_455 A
C62    C67     1.405   1_565 A
N63    C64     1.361   .     A
N63    C62     1.363   1_655 A
C64    H70     1.082   .     S
C64    C65     1.404   1_655 A
C65    C64     1.404   1_455 A
C65    C66     1.402   1_565 A
C65    C6      1.479   1_455 S
C66    C67     1.393   .     A
C66    H71     1.083   .     S
C66    C65     1.402   1_545 A
C67    H73     1.081   .     S
C67    C62     1.405   1_545 A
