data_pcu+N248+E28
_audit_creation_date              2023-11-17
_audit_creation_method            'Materials Studio'
_symmetry_space_group_name_H-M    'P1'
_symmetry_Int_Tables_number       1
_symmetry_cell_setting            triclinic
loop_
_symmetry_equiv_pos_as_xyz
  x,y,z
_cell_length_a                    19.8395
_cell_length_b                    19.1619
_cell_length_c                    22.2065
_cell_angle_alpha                 89.5658
_cell_angle_beta                  90.0120
_cell_angle_gamma                 90.1443
loop_
_atom_site_label
_atom_site_type_symbol
_atom_site_fract_x
_atom_site_fract_y
_atom_site_fract_z
_atom_site_U_iso_or_equiv
_atom_site_adp_type
_atom_site_occupancy
O0     O     0.88525   1.00425   0.94992   0.00000  Uiso   1.00
Yb1    Yb    0.99346   0.00446   0.06563   0.00000  Uiso   1.00
C2     C     0.99347   1.00391   0.17996   0.00000  Uiso   1.00
Yb3    Yb   -0.00655   1.00346   0.93790   0.00000  Uiso   1.00
O4     O     0.88526   0.00356   0.05359   0.00000  Uiso   1.00
C5     C     0.99370   0.13567   0.95457   0.00000  Uiso   1.00
C6     C     0.85425   0.00388   0.00176   0.00000  Uiso   1.00
O7     O     0.99358   0.06056   0.85424   0.00000  Uiso   1.00
C8     C    -0.00653   0.00402   0.82357   0.00000  Uiso   1.00
O9     O     0.99327   0.89863   0.09928   0.00000  Uiso   1.00
O10    O    -0.00671   0.92060   1.00169   0.00000  Uiso   1.00
O11    O     0.10167   0.00368   0.05362   0.00000  Uiso   1.00
O12    O    -0.00666   0.94788   0.85499   0.00000  Uiso   1.00
O13    O     0.10165   1.00435   0.94994   0.00000  Uiso   1.00
C14    C    -0.00679   0.87225   0.04896   0.00000  Uiso   1.00
C15    C     0.13267   1.00403   1.00178   0.00000  Uiso   1.00
O16    O    -0.00665   0.94736   0.14929   0.00000  Uiso   1.00
O17    O     0.99359   0.06004   0.14854   0.00000  Uiso   1.00
O18    O    -0.00634   0.10929   0.90425   0.00000  Uiso   1.00
O19    O     0.99362   0.08732   0.00184   0.00000  Uiso   1.00
C20    C     0.99301   0.65060   0.02070   0.00000  Uiso   1.00
C21    C     0.99257   0.69735   0.97154   0.00000  Uiso   1.00
C22    C     0.99262   0.76941   0.98088   0.00000  Uiso   1.00
C23    C     0.99309   0.79621   0.03948   0.00000  Uiso   1.00
C24    C    -0.00650   0.74979   0.08868   0.00000  Uiso   1.00
C25    C     0.99347   0.67772   0.07940   0.00000  Uiso   1.00
C26    C     0.99308   0.57412   0.01082   0.00000  Uiso   1.00
N27    N     0.99415   0.52884   0.05817   0.00000  Uiso   1.00
N28    N     0.99434   0.46017   0.04931   0.00000  Uiso   1.00
C29    C     0.99347   0.43379  -0.00730   0.00000  Uiso   1.00
N30    N     0.99239   0.47907   0.94535   0.00000  Uiso   1.00
N31    N     0.99219   0.54773   0.95421   0.00000  Uiso   1.00
C32    C     0.99363   0.35731  -0.01717   0.00000  Uiso   1.00
C33    C     0.99332   0.33019   0.92413   0.00000  Uiso   1.00
C34    C     0.99339   0.25813   0.91485   0.00000  Uiso   1.00
C35    C     0.99376   0.21171  -0.03595   0.00000  Uiso   1.00
C36    C    -0.00590   0.23850   0.02265   0.00000  Uiso   1.00
C37    C     0.99404   0.31056   0.03198   0.00000  Uiso   1.00
H38    H     0.99223   0.67838   0.92574   0.00000  Uiso   1.00
H39    H     0.99230   0.80416   0.94217   0.00000  Uiso   1.00
H40    H    -0.00613   0.76920   0.13436   0.00000  Uiso   1.00
H41    H    -0.00618   0.64333   0.11830   0.00000  Uiso   1.00
H42    H     0.99302   0.36459   0.88522   0.00000  Uiso   1.00
H43    H     0.99313   0.23872   0.86916   0.00000  Uiso   1.00
H44    H    -0.00561   0.20376   0.06135   0.00000  Uiso   1.00
H45    H    -0.00572   0.32954   0.07778   0.00000  Uiso   1.00
C46    C     0.35007   0.00403   0.00179   0.00000  Uiso   1.00
C47    C     0.31398   0.00177   0.05626   0.00000  Uiso   1.00
C48    C     0.24353   1.00181   0.05626   0.00000  Uiso   1.00
C49    C     0.20742   0.00406   0.00179   0.00000  Uiso   1.00
C50    C     0.24352   0.00635   0.94731   0.00000  Uiso   1.00
C51    C     0.31396   0.00634   0.94732   0.00000  Uiso   1.00
C52    C     0.42485   0.00398   0.00179   0.00000  Uiso   1.00
N53    N     0.45987   0.00610   0.94924   0.00000  Uiso   1.00
N54    N     0.52701   0.00602   0.94924   0.00000  Uiso   1.00
C55    C     0.56206   0.00382   0.00178   0.00000  Uiso   1.00
N56    N     0.52704   0.00170   0.05432   0.00000  Uiso   1.00
N57    N     0.45990   0.00178   0.05432   0.00000  Uiso   1.00
C58    C     0.63684   0.00380   0.00177   0.00000  Uiso   1.00
C59    C     0.67295   0.00139   0.05623   0.00000  Uiso   1.00
C60    C     0.74340   1.00144   0.05623   0.00000  Uiso   1.00
C61    C     0.77949   0.00385   0.00176   0.00000  Uiso   1.00
C62    C     0.74338   0.00624   0.94730   0.00000  Uiso   1.00
C63    C     0.67293   0.00624   0.94730   0.00000  Uiso   1.00
H64    H     0.34008   0.99994   0.09906   0.00000  Uiso   1.00
H65    H     0.21743   0.99996   0.09907   0.00000  Uiso   1.00
H66    H     0.21742   0.00821   0.90450   0.00000  Uiso   1.00
H67    H     0.34006   0.00816   0.90452   0.00000  Uiso   1.00
H68    H     0.64685   0.99946   0.09903   0.00000  Uiso   1.00
H69    H     0.76951   0.99950   0.09904   0.00000  Uiso   1.00
H70    H     0.76948   0.00820   0.90449   0.00000  Uiso   1.00
H71    H     0.64683   0.00817   0.90450   0.00000  Uiso   1.00
C72    C     0.99353   0.00397   0.37367   0.00000  Uiso   1.00
C73    C     0.99357   0.94078   0.34182   0.00000  Uiso   1.00
C74    C     0.99353   0.94081   0.27887   0.00000  Uiso   1.00
C75    C     0.99348   0.00396   0.24643   0.00000  Uiso   1.00
C76    C     0.99346   0.06712   0.27804   0.00000  Uiso   1.00
C77    C     0.99346   0.06715   0.34099   0.00000  Uiso   1.00
C78    C     0.99356   0.00397   0.44047   0.00000  Uiso   1.00
N79    N     0.99329   0.06487   0.47137   0.00000  Uiso   1.00
N80    N     0.99332   0.06488   0.53135   0.00000  Uiso   1.00
C81    C     0.99363   0.00397   0.56305   0.00000  Uiso   1.00
N82    N     0.99391   0.94306   0.53215   0.00000  Uiso   1.00
N83    N     0.99388   0.94306   0.47217   0.00000  Uiso   1.00
C84    C     0.99361   0.00397   0.62986   0.00000  Uiso   1.00
C85    C     0.99372   0.94079   0.66253   0.00000  Uiso   1.00
C86    C     0.99368   0.94082   0.72548   0.00000  Uiso   1.00
C87    C     0.99352   0.00397   0.75710   0.00000  Uiso   1.00
C88    C     0.99341   0.06712   0.72466   0.00000  Uiso   1.00
C89    C     0.99347   0.06715   0.66171   0.00000  Uiso   1.00
H90    H     0.99363   0.89115   0.36545   0.00000  Uiso   1.00
H91    H    -0.00643   0.89133   0.25559   0.00000  Uiso   1.00
H92    H     0.99342   0.11659   0.25412   0.00000  Uiso   1.00
H93    H     0.99343   0.11678   0.36398   0.00000  Uiso   1.00
H94    H     0.99383   0.89116   0.63954   0.00000  Uiso   1.00
H95    H    -0.00622   0.89135   0.74940   0.00000  Uiso   1.00
H96    H     0.99328   0.11659   0.74794   0.00000  Uiso   1.00
H97    H     0.99339   0.11679   0.63808   0.00000  Uiso   1.00
loop_
_geom_bond_atom_site_label_1
_geom_bond_atom_site_label_2
_geom_bond_distance
_geom_bond_site_symmetry_2
_ccdc_geom_bond_type
O0     C6      1.305   1_566 A
O0     Yb3     2.163   1_655 S
Yb1    O4      2.163   .     S
Yb1    O17     2.134   .     S
Yb1    O19     2.120   .     S
Yb1    Yb3     2.837   1_644 S
Yb1    O9      2.156   1_545 S
Yb1    O10     2.152   1_644 S
Yb1    O11     2.163   1_655 S
Yb1    O16     2.149   1_645 S
C2     O16     1.284   1_655 A
C2     O17     1.278   1_565 A
C2     C75     1.476   1_565 S
Yb3    O10     2.120   .     S
Yb3    O12     2.134   .     S
Yb3    O13     2.163   .     S
Yb3    O0      2.163   1_455 S
Yb3    Yb1     2.837   1_466 S
Yb3    O7      2.149   1_465 S
Yb3    O18     2.156   1_565 S
Yb3    O19     2.152   1_466 S
O4     C6      1.305   .     A
C5     O18     1.230   1_655 D
C5     O19     1.395   1_556 S
C5     C35     1.474   1_556 S
C6     C61     1.483   .     S
C6     O0      1.305   1_544 A
O7     Yb3     2.149   1_645 S
O7     C8      1.284   1_655 A
C8     O7      1.284   1_455 A
C8     O12     1.278   1_545 A
C8     C87     1.476   1_455 S
O9     Yb1     2.156   1_565 S
O9     C14     1.230   1_655 D
O10    Yb1     2.152   1_466 S
O10    C14     1.395   1_556 S
O11    Yb1     2.163   1_455 S
O11    C15     1.305   1_544 A
O12    C8      1.278   1_565 A
O13    C15     1.305   .     A
C14    O9      1.230   1_455 D
C14    O10     1.395   1_554 S
C14    C23     1.474   1_455 S
C15    O11     1.305   1_566 A
C15    C49     1.483   1_566 S
O16    Yb1     2.149   1_465 S
O16    C2      1.284   1_455 A
O17    C2      1.278   1_545 A
O18    Yb3     2.156   1_545 S
O18    C5      1.230   1_455 D
O19    Yb3     2.152   1_644 S
O19    C5      1.395   1_554 S
C20    C25     1.407   .     A
C20    C26     1.483   .     S
C20    C21     1.407   1_554 A
C21    C22     1.398   .     A
C21    H38     1.083   .     S
C21    C20     1.407   1_556 A
C22    H39     1.083   .     S
C22    C23     1.403   1_556 A
C23    C22     1.403   1_554 A
C23    C24     1.404   1_655 A
C23    C14     1.474   1_655 S
C24    H40     1.083   .     S
C24    C23     1.404   1_455 A
C24    C25     1.398   1_455 A
C25    C24     1.398   1_655 A
C25    H41     1.083   1_655 S
C26    N27     1.358   .     A
C26    N31     1.359   1_554 A
N27    N28     1.332   .     A
N28    C29     1.359   .     A
C29    C32     1.483   .     S
C29    N30     1.358   1_554 A
N30    N31     1.332   .     A
N30    C29     1.358   1_556 A
N31    C26     1.359   1_556 A
C32    C37     1.407   .     A
C32    C33     1.407   1_554 A
C33    C34     1.398   .     A
C33    H42     1.083   .     S
C33    C32     1.407   1_556 A
C34    H43     1.083   .     S
C34    C35     1.404   1_556 A
C35    C34     1.404   1_554 A
C35    C36     1.403   1_655 A
C35    C5      1.474   1_554 S
C36    H44     1.083   .     S
C36    C35     1.403   1_455 A
C36    C37     1.398   1_455 A
C37    C36     1.398   1_655 A
C37    H45     1.083   1_655 S
H41    C25     1.083   1_455 S
H45    C37     1.083   1_455 S
C46    C47     1.406   .     A
C46    C52     1.484   .     S
C46    C51     1.406   1_554 A
C47    C48     1.398   1_545 A
C47    H64     1.083   1_545 S
C48    H65     1.083   .     S
C48    C47     1.398   1_565 A
C48    C49     1.406   1_565 A
C49    C48     1.406   1_545 A
C49    C50     1.406   1_554 A
C49    C15     1.483   1_544 S
C50    C51     1.398   .     A
C50    H66     1.083   .     S
C50    C49     1.406   1_556 A
C51    H67     1.083   .     S
C51    C46     1.406   1_556 A
C52    N57     1.359   .     A
C52    N53     1.358   1_554 A
N53    N54     1.332   .     A
N53    C52     1.358   1_556 A
N54    C55     1.359   1_556 A
C55    N56     1.358   .     A
C55    C58     1.484   .     S
C55    N54     1.359   1_554 A
N56    N57     1.332   .     A
C58    C59     1.406   .     A
C58    C63     1.406   1_554 A
C59    C60     1.398   1_545 A
C59    H68     1.083   1_545 S
C60    H69     1.083   .     S
C60    C59     1.398   1_565 A
C60    C61     1.406   1_565 A
C61    C60     1.406   1_545 A
C61    C62     1.406   1_554 A
C62    C63     1.398   .     A
C62    H70     1.083   .     S
C62    C61     1.406   1_556 A
C63    H71     1.083   .     S
C63    C58     1.406   1_556 A
H64    C47     1.083   1_565 S
H68    C59     1.083   1_565 S
C72    C77     1.407   .     A
C72    C78     1.483   .     S
C72    C73     1.407   1_545 A
C73    C74     1.398   .     A
C73    H90     1.083   .     S
C73    C72     1.407   1_565 A
C74    C75     1.404   1_565 A
C74    H91     1.083   1_655 S
C75    C76     1.404   .     A
C75    C74     1.404   1_545 A
C75    C2      1.476   1_545 S
C76    C77     1.398   .     A
C76    H92     1.083   .     S
C77    H93     1.083   .     S
C78    N79     1.358   .     A
C78    N83     1.358   1_545 A
N79    N80     1.332   .     A
N80    C81     1.358   .     A
C81    C84     1.484   .     S
C81    N82     1.358   1_545 A
N82    N83     1.332   .     A
N82    C81     1.358   1_565 A
N83    C78     1.358   1_565 A
C84    C89     1.407   .     A
C84    C85     1.407   1_545 A
C85    C86     1.398   .     A
C85    H94     1.083   .     S
C85    C84     1.407   1_565 A
C86    C87     1.404   1_565 A
C86    H95     1.083   1_655 S
C87    C88     1.404   .     A
C87    C86     1.404   1_545 A
C87    C8      1.476   1_655 S
C88    C89     1.398   .     A
C88    H96     1.083   .     S
C89    H97     1.083   .     S
H91    C74     1.083   1_455 S
H95    C86     1.083   1_455 S
