data_pcu+N123+E183
_audit_creation_date              2023-11-17
_audit_creation_method            'Materials Studio'
_symmetry_space_group_name_H-M    'P1'
_symmetry_Int_Tables_number       1
_symmetry_cell_setting            triclinic
loop_
_symmetry_equiv_pos_as_xyz
  x,y,z
_cell_length_a                    15.9098
_cell_length_b                    13.4398
_cell_length_c                    12.8888
_cell_angle_alpha                 90.1428
_cell_angle_beta                  84.1295
_cell_angle_gamma                 89.9170
loop_
_atom_site_label
_atom_site_type_symbol
_atom_site_fract_x
_atom_site_fract_y
_atom_site_fract_z
_atom_site_U_iso_or_equiv
_atom_site_adp_type
_atom_site_occupancy
Ce0    Ce    0.09103   0.99997   0.99719   0.00000  Uiso   1.00
Ce1    Ce    0.90917   0.00018   0.00303   0.00000  Uiso   1.00
C2     C     0.94631   0.99974   0.79512   0.00000  Uiso   1.00
C3     C     0.26053   0.99983   0.99852   0.00000  Uiso   1.00
C4     C     1.00017   0.78455   0.00008   0.00000  Uiso   1.00
C5     C     0.05388   0.00045   0.20509   0.00000  Uiso   1.00
C6     C     0.73967   0.00034   0.00169   0.00000  Uiso   1.00
C7     C     0.00004   0.21560   1.00011   0.00000  Uiso   1.00
O8     O     0.87339  -0.00022   0.83647   0.00000  Uiso   1.00
O9     O     0.00849   0.99982   0.86454   0.00000  Uiso   1.00
O10    O     0.22455   0.99957   0.91430   0.00000  Uiso   1.00
O11    O     0.21001   1.00013   0.08252   0.00000  Uiso   1.00
O12    O     0.07205   0.83004  -0.00083   0.00000  Uiso   1.00
O13    O     0.92827   0.83023   0.00101   0.00000  Uiso   1.00
O14    O     0.12681   1.00043   0.16374   0.00000  Uiso   1.00
O15    O     0.99171   0.00031   0.13568   0.00000  Uiso   1.00
O16    O     0.77565   0.00058   0.08591   0.00000  Uiso   1.00
O17    O     0.79018   0.00005   0.91769   0.00000  Uiso   1.00
O18    O     0.92815   0.17011   1.00106   0.00000  Uiso   1.00
O19    O     0.07194   0.16992   0.99917   0.00000  Uiso   1.00
C20    C     0.00017   0.67497   1.00008   0.00000  Uiso   1.00
C21    C     0.95749   0.50016   0.00007   0.00000  Uiso   1.00
C22    C     0.04274   0.49999   1.00010   0.00000  Uiso   1.00
S23    S     0.90661   0.38959   0.00007   0.00000  Uiso   1.00
S24    S     0.09353   0.38920   1.00015   0.00000  Uiso   1.00
S25    S     0.90670   0.61095   0.00002   0.00000  Uiso   1.00
S26    S     0.09362   0.61056   1.00010   0.00000  Uiso   1.00
C27    C     1.00005   0.32518   0.00011   0.00000  Uiso   1.00
C28    C     0.35274  -0.00011   0.99908   0.00000  Uiso   1.00
C29    C     0.50472   0.99926   0.94718   0.00000  Uiso   1.00
C30    C     0.49548   0.00108   0.05303   0.00000  Uiso   1.00
S31    S     0.60370   0.99847   0.88475   0.00000  Uiso   1.00
S32    S     0.58342   0.00237   0.11676   0.00000  Uiso   1.00
S33    S     0.41677   0.99776   0.88344   0.00000  Uiso   1.00
S34    S     0.39650   0.00193   0.11546   0.00000  Uiso   1.00
C35    C     0.64746   1.00035   0.00113   0.00000  Uiso   1.00
C36    C     0.03344   0.00043   0.31864   0.00000  Uiso   1.00
C37    C     0.04185   1.00124   0.50670   0.00000  Uiso   1.00
C38    C     0.95833  -0.00100   0.49350   0.00000  Uiso   1.00
S39    S     0.07045   1.00234   0.62969   0.00000  Uiso   1.00
S40    S     0.88736  -0.00248   0.60077   0.00000  Uiso   1.00
S41    S     0.11282   1.00279   0.39942   0.00000  Uiso   1.00
S42    S     0.92973  -0.00208   0.37051   0.00000  Uiso   1.00
C43    C     0.96675   0.99978   0.68156   0.00000  Uiso   1.00
loop_
_geom_bond_atom_site_label_1
_geom_bond_atom_site_label_2
_geom_bond_distance
_geom_bond_site_symmetry_2
_ccdc_geom_bond_type
Ce0    O9      2.260   .     S
Ce0    O10     2.278   .     S
Ce0    O11     2.285   1_556 S
Ce0    O12     2.304   1_556 S
Ce0    O14     2.276   1_556 S
Ce0    O15     2.260   1_466 S
Ce0    O19     2.303   1_565 S
Ce1    O15     2.260   .     S
Ce1    O16     2.278   .     S
Ce1    O8      2.276   1_554 S
Ce1    O9      2.260   1_644 S
Ce1    O13     2.303   1_545 S
Ce1    O17     2.285   1_554 S
Ce1    O18     2.304   1_554 S
C2     C43     1.466   .     S
C2     O8      1.226   1_565 D
C2     O9      1.400   1_655 S
C3     O10     1.278   .     A
C3     O11     1.281   1_556 A
C3     C28     1.468   1_565 S
C4     O13     1.296   .     A
C4     O12     1.297   1_655 A
C4     C20     1.473   1_654 S
C5     C36     1.466   .     S
C5     O14     1.226   1_545 D
C5     O15     1.400   1_455 S
C6     O16     1.278   .     A
C6     O17     1.281   1_554 A
C6     C35     1.468   1_545 S
C7     O19     1.296   .     A
C7     O18     1.297   1_455 A
C7     C27     1.473   1_456 S
O8     Ce1     2.276   1_556 S
O8     C2      1.226   1_545 D
O9     Ce1     2.260   1_466 S
O9     C2      1.400   1_455 S
O11    Ce0     2.285   1_554 S
O11    C3      1.281   1_554 A
O12    Ce0     2.304   1_554 S
O12    C4      1.297   1_455 A
O13    Ce1     2.303   1_565 S
O14    Ce0     2.276   1_554 S
O14    C5      1.226   1_565 D
O15    Ce0     2.260   1_644 S
O15    C5      1.400   1_655 S
O17    Ce1     2.285   1_556 S
O17    C6      1.281   1_556 A
O18    Ce1     2.304   1_556 S
O18    C7      1.297   1_655 A
O19    Ce0     2.303   1_545 S
C20    S26     1.719   .     A
C20    S25     1.719   1_456 A
C20    C4      1.473   1_456 S
C21    S23     1.693   .     A
C21    S25     1.693   .     A
C21    C22     1.356   1_654 A
C22    S24     1.693   .     A
C22    S26     1.693   .     A
C22    C21     1.356   1_456 A
S23    C27     1.719   .     A
S24    C27     1.719   1_456 A
S25    C20     1.719   1_654 A
C27    S24     1.719   1_654 A
C27    C7      1.473   1_654 S
C28    S33     1.717   1_545 A
C28    S34     1.717   1_556 A
C28    C3      1.468   1_545 S
C29    S31     1.694   .     A
C29    S33     1.694   .     A
C29    C30     1.357   1_566 A
C30    S32     1.694   .     A
C30    S34     1.694   .     A
C30    C29     1.357   1_544 A
S31    C35     1.717   1_556 A
S32    C35     1.717   1_545 A
S33    C28     1.717   1_565 A
S34    C28     1.717   1_554 A
C35    S31     1.717   1_554 A
C35    S32     1.717   1_565 A
C35    C6      1.468   1_565 S
C36    S41     1.717   1_545 A
C36    S42     1.716   1_455 A
C37    S39     1.693   .     A
C37    S41     1.693   .     A
C37    C38     1.357   1_465 A
C38    S40     1.693   .     A
C38    S42     1.693   .     A
C38    C37     1.357   1_645 A
S39    C43     1.716   1_455 A
S40    C43     1.717   1_545 A
S41    C36     1.717   1_565 A
S42    C36     1.716   1_655 A
C43    S39     1.716   1_655 A
C43    S40     1.717   1_565 A
