data_pcu+N144+E191
_audit_creation_date              2023-11-17
_audit_creation_method            'Materials Studio'
_symmetry_space_group_name_H-M    'P1'
_symmetry_Int_Tables_number       1
_symmetry_cell_setting            triclinic
loop_
_symmetry_equiv_pos_as_xyz
  x,y,z
_cell_length_a                    19.5618
_cell_length_b                    17.8174
_cell_length_c                    17.8327
_cell_angle_alpha                 89.7848
_cell_angle_beta                  103.4795
_cell_angle_gamma                 80.0615
loop_
_atom_site_label
_atom_site_type_symbol
_atom_site_fract_x
_atom_site_fract_y
_atom_site_fract_z
_atom_site_U_iso_or_equiv
_atom_site_adp_type
_atom_site_occupancy
C0     C     0.20747   0.00379   0.06947   0.00000  Uiso   1.00
Er1    Er    0.93394   0.99915   0.96594   0.00000  Uiso   1.00
Er2    Er    0.05498   0.97602  -0.00204   0.00000  Uiso   1.00
C3     C    -0.00253   0.98678   0.14122   0.00000  Uiso   1.00
O4     O     0.05246   0.09850  -0.00466   0.00000  Uiso   1.00
C5     C    -0.00555   0.82984  -0.01824   0.00000  Uiso   1.00
C6     C     0.99876   0.98765   0.82545   0.00000  Uiso   1.00
C7     C     0.80748   0.01889   0.99846   0.00000  Uiso   1.00
O8     O     0.17460   0.04855   0.10555   0.00000  Uiso   1.00
O9     O     0.17365  -0.04967   1.02554   0.00000  Uiso   1.00
O10    O     0.05673   0.97490   0.87697   0.00000  Uiso   1.00
O11    O     0.93987   1.00019   0.84559   0.00000  Uiso   1.00
O12    O     0.05324   0.85449  -0.00124   0.00000  Uiso   1.00
O13    O     0.93571   0.87697   0.96475   0.00000  Uiso   1.00
C14    C     0.99360   0.14553  -0.01819   0.00000  Uiso   1.00
O15    O     0.93481   0.12078  -0.03187   0.00000  Uiso   1.00
O16    O     0.05565   0.97640   0.11962   0.00000  Uiso   1.00
O17    O     0.93795   0.99700   0.09046   0.00000  Uiso   1.00
O18    O     0.81741   0.02074   0.93119   0.00000  Uiso   1.00
O19    O     0.86614   0.00785   0.04955   0.00000  Uiso   1.00
Ni20   Ni   -0.00602   0.48767  -0.01799   0.00000  Uiso   1.00
C21    C    -0.00565   0.74679  -0.01822   0.00000  Uiso   1.00
C22    C     0.05886   0.69421   1.00027   0.00000  Uiso   1.00
C23    C     0.05748   0.61608   0.99999   0.00000  Uiso   1.00
C24    C     0.93088   0.64039  -0.03616   0.00000  Uiso   1.00
C25    C     0.92973   0.71900  -0.03659   0.00000  Uiso   1.00
H26    H     0.10916   0.21787   1.00692   0.00000  Uiso   1.00
H27    H     0.87820   0.26211  -0.04277   0.00000  Uiso   1.00
H28    H     0.88105   0.39999  -0.04211   0.00000  Uiso   1.00
H29    H     0.10663   0.35677   1.00640   0.00000  Uiso   1.00
N30    N    -0.00616   0.38442  -0.01790   0.00000  Uiso   1.00
N31    N    -0.00587   0.59092  -0.01807   0.00000  Uiso   1.00
H32    H     0.10984   0.71317   1.01482   0.00000  Uiso   1.00
H33    H     0.10695   0.57530   1.01421   0.00000  Uiso   1.00
H34    H     0.88131   0.61864  -0.05025   0.00000  Uiso   1.00
H35    H     0.87882   0.75754  -0.05112   0.00000  Uiso   1.00
C36    C    -0.00635   0.22857  -0.01800   0.00000  Uiso   1.00
C37    C     0.92916   0.28111  -0.03182   0.00000  Uiso   1.00
C38    C     0.93052   0.35924  -0.03148   0.00000  Uiso   1.00
C39    C     0.05708   0.33499   0.99575   0.00000  Uiso   1.00
C40    C     0.05825   0.25639   0.99600   0.00000  Uiso   1.00
Ni41   Ni    0.51187   0.02205   1.05358   0.00000  Uiso   1.00
C42    C     0.28300   0.00615   1.07090   0.00000  Uiso   1.00
C43    C     0.31777   0.06254   0.10994   0.00000  Uiso   1.00
C44    C     0.38782   0.06571   0.10589   0.00000  Uiso   1.00
C45    C     0.39012  -0.04143   1.02749   0.00000  Uiso   1.00
C46    C     0.32037  -0.04670   1.02995   0.00000  Uiso   1.00
H47    H     0.77415  -0.00828   0.13614   0.00000  Uiso   1.00
H48    H     0.67884   0.06023   0.89666   0.00000  Uiso   1.00
H49    H     0.56013   0.06140   0.92223   0.00000  Uiso   1.00
H50    H     0.65303  -0.00534   0.15660   0.00000  Uiso   1.00
N51    N     0.60126   0.02863   1.04048   0.00000  Uiso   1.00
N52    N     0.42204   0.01445   1.06454   0.00000  Uiso   1.00
H53    H     0.29068   0.10465   0.14178   0.00000  Uiso   1.00
H54    H     0.41442   0.10990   0.13440   0.00000  Uiso   1.00
H55    H     0.41865  -0.08119   0.99483   0.00000  Uiso   1.00
H56    H     0.29570  -0.09105   0.99902   0.00000  Uiso   1.00
C57    C     0.73610   0.02618   1.01466   0.00000  Uiso   1.00
C58    C     0.67478   0.04657   0.95452   0.00000  Uiso   1.00
C59    C     0.60752   0.04747   0.96880   0.00000  Uiso   1.00
C60    C     0.65962   0.01014   0.10032   0.00000  Uiso   1.00
C61    C     0.72811   0.00872   0.08861   0.00000  Uiso   1.00
Ni62   Ni    0.00064   0.98779   0.48398   0.00000  Uiso   1.00
C63    C    -0.00152   0.98713   0.22447   0.00000  Uiso   1.00
C64    C     0.06315   0.96780   0.28050   0.00000  Uiso   1.00
C65    C     0.06274   0.96838   0.35877   0.00000  Uiso   1.00
C66    C     0.93688   1.00695   0.32780   0.00000  Uiso   1.00
C67    C     0.93482   1.00716   0.24902   0.00000  Uiso   1.00
H68    H     0.11513   0.96313   0.76178   0.00000  Uiso   1.00
H69    H     0.88410   1.01269   0.70075   0.00000  Uiso   1.00
H70    H     0.88771   1.01219   0.56348   0.00000  Uiso   1.00
H71    H     0.11338   0.96375   0.62292   0.00000  Uiso   1.00
N72    N     1.00056   0.98797   0.58716   0.00000  Uiso   1.00
N73    N     0.00017   0.98768   0.38067   0.00000  Uiso   1.00
H74    H     0.11347   0.95215   0.26408   0.00000  Uiso   1.00
H75    H     0.11232   0.95338   0.40220   0.00000  Uiso   1.00
H76    H     0.88797   1.02230   0.34701   0.00000  Uiso   1.00
H77    H     0.88401   1.02341   0.20791   0.00000  Uiso   1.00
C78    C     0.99954   0.98789   0.74266   0.00000  Uiso   1.00
C79    C     0.93526   1.00180   0.68554   0.00000  Uiso   1.00
C80    C     0.93704   1.00158   0.60772   0.00000  Uiso   1.00
C81    C     0.06365   0.97441   0.64106   0.00000  Uiso   1.00
C82    C     0.06439   0.97410   0.71963   0.00000  Uiso   1.00
loop_
_geom_bond_atom_site_label_1
_geom_bond_atom_site_label_2
_geom_bond_distance
_geom_bond_site_symmetry_2
_ccdc_geom_bond_type
C0     O8      1.218   .     D
C0     O9      1.393   1_554 S
C0     C42     1.480   1_554 S
Er1    O11     2.176   .     S
Er1    O13     2.172   .     S
Er1    O15     2.170   1_566 S
Er1    O17     2.203   1_556 S
Er1    O18     2.183   1_565 S
Er1    O19     2.204   1_566 S
Er2    O12     2.171   .     S
Er2    O16     2.167   .     S
Er2    O4      2.174   1_565 S
Er2    O9      2.223   1_564 S
Er2    O10     2.166   1_554 S
C3     O16     1.269   .     A
C3     C63     1.480   .     S
C3     O17     1.282   1_455 A
O4     Er2     2.174   1_545 S
O4     C14     1.274   1_455 A
C5     O12     1.273   .     A
C5     C21     1.480   .     S
C5     O13     1.273   1_454 A
C6     O11     1.269   .     A
C6     C78     1.480   .     S
C6     O10     1.267   1_655 A
C7     O18     1.260   .     A
C7     C57     1.475   .     S
C7     O19     1.272   1_556 A
O9     C0      1.393   1_556 S
O9     Er2     2.223   1_546 S
O10    Er2     2.166   1_556 S
O10    C6      1.267   1_455 A
O13    C5      1.273   1_656 A
C14    O15     1.273   .     A
C14    O4      1.274   1_655 A
C14    C36     1.480   1_655 S
O15    Er1     2.170   1_544 S
O17    Er1     2.203   1_554 S
O17    C3      1.282   1_655 A
O18    Er1     2.183   1_545 S
O19    Er1     2.204   1_544 S
O19    C7      1.272   1_554 A
Ni20   N30     1.840   .     S
Ni20   N31     1.840   .     S
C21    C22     1.405   1_554 A
C21    C25     1.405   1_455 A
C22    C23     1.397   .     A
C22    H32     1.083   .     S
C22    C21     1.405   1_556 A
C23    H33     1.082   .     S
C23    N31     1.359   1_556 A
C24    C25     1.397   .     A
C24    H34     1.082   .     S
C24    N31     1.359   1_655 A
C25    H35     1.083   .     S
C25    C21     1.405   1_655 A
H26    C40     1.083   .     S
H27    C37     1.083   .     S
H28    C38     1.082   .     S
H29    C39     1.082   .     S
N30    C38     1.359   1_455 A
N30    C39     1.359   1_554 A
N31    C23     1.359   1_554 A
N31    C24     1.359   1_455 A
C36    C37     1.405   1_455 A
C36    C40     1.405   1_554 A
C36    C14     1.480   1_455 S
C37    C38     1.397   .     A
C37    C36     1.405   1_655 A
C38    N30     1.359   1_655 A
C39    C40     1.397   .     A
C39    N30     1.359   1_556 A
C40    C36     1.405   1_556 A
Ni41   N51     1.840   .     S
Ni41   N52     1.840   .     S
C42    C46     1.404   .     A
C42    C43     1.406   1_556 A
C42    C0      1.480   1_556 S
C43    C44     1.400   .     A
C43    H53     1.083   .     S
C43    C42     1.406   1_554 A
C44    H54     1.082   .     S
C44    N52     1.360   1_554 A
C45    C46     1.394   .     A
C45    N52     1.358   .     A
C45    H55     1.082   .     S
C46    H56     1.083   .     S
H47    C61     1.081   .     S
H48    C58     1.083   .     S
H49    C59     1.082   .     S
H50    C60     1.082   .     S
N51    C59     1.359   .     A
N51    C60     1.360   1_556 A
N52    C44     1.360   1_556 A
C57    C58     1.403   .     A
C57    C61     1.404   1_556 A
C58    C59     1.395   .     A
C60    C61     1.399   .     A
C60    N51     1.360   1_554 A
C61    C57     1.404   1_554 A
Ni62   N73     1.840   .     S
Ni62   N72     1.840   1_455 S
C63    C64     1.405   .     A
C63    C67     1.404   1_455 A
C64    C65     1.398   .     A
C64    H74     1.083   .     S
C65    N73     1.359   .     A
C65    H75     1.082   .     S
C66    C67     1.396   .     A
C66    H76     1.082   .     S
C66    N73     1.359   1_655 A
C67    H77     1.081   .     S
C67    C63     1.404   1_655 A
H68    C82     1.083   .     S
H69    C79     1.083   .     S
H70    C80     1.082   .     S
H71    C81     1.082   .     S
N72    C80     1.359   .     A
N72    Ni62    1.840   1_655 S
N72    C81     1.359   1_655 A
N73    C66     1.359   1_455 A
C78    C79     1.405   .     A
C78    C82     1.405   1_655 A
C79    C80     1.396   .     A
C81    C82     1.398   .     A
C81    N72     1.359   1_455 A
C82    C78     1.405   1_455 A
