data_pcu+N106+E229
_audit_creation_date              2023-11-17
_audit_creation_method            'Materials Studio'
_symmetry_space_group_name_H-M    'P1'
_symmetry_Int_Tables_number       1
_symmetry_cell_setting            triclinic
loop_
_symmetry_equiv_pos_as_xyz
  x,y,z
_cell_length_a                    24.4965
_cell_length_b                    21.5277
_cell_length_c                    22.6462
_cell_angle_alpha                 52.9126
_cell_angle_beta                  59.5270
_cell_angle_gamma                 51.6116
loop_
_atom_site_label
_atom_site_type_symbol
_atom_site_fract_x
_atom_site_fract_y
_atom_site_fract_z
_atom_site_U_iso_or_equiv
_atom_site_adp_type
_atom_site_occupancy
Y0     Y     0.93278  -0.00846   0.04999   0.00000  Uiso   1.00
Y1     Y     0.07821   1.00235   0.94634   0.00000  Uiso   1.00
O2     O     0.89450   0.13703  -0.00527   0.00000  Uiso   1.00
O3     O     0.97226   0.05990   0.92465   0.00000  Uiso   1.00
C4     C     0.19588   1.02465   0.88248   0.00000  Uiso   1.00
O5     O     0.06551   0.98609   0.86443   0.00000  Uiso   1.00
O6     O     0.83805  -0.02230   0.14464   0.00000  Uiso   1.00
O7     O     0.85340  -0.02746   1.04753   0.00000  Uiso   1.00
O8     O     0.00118   0.13280   0.95471   0.00000  Uiso   1.00
O9     O     0.03863   0.93431   0.07173   0.00000  Uiso   1.00
O10    O     0.94514   0.00871   0.13149   0.00000  Uiso   1.00
O11    O     1.00993   0.86107   0.04178   0.00000  Uiso   1.00
C12    C    -0.06735   0.17350   0.96984   0.00000  Uiso   1.00
O13    O     0.11647   0.85668   1.00263   0.00000  Uiso   1.00
C14    C     0.00103   1.02155   0.87780   0.00000  Uiso   1.00
O15    O     0.17399   1.01254   0.85217   0.00000  Uiso   1.00
O16    O     0.15722   1.02425  -0.05382   0.00000  Uiso   1.00
C17    C     0.81562  -0.03134   0.11226   0.00000  Uiso   1.00
C18    C     1.07841   0.82003   0.02762   0.00000  Uiso   1.00
C19    C     1.00967  -0.02682   0.11824   0.00000  Uiso   1.00
C20    C     0.10673   0.59984   0.07819   0.00000  Uiso   1.00
C21    C     0.18133   0.55309   0.06423   0.00000  Uiso   1.00
C22    C     0.22211   0.59233   0.04022   0.00000  Uiso   1.00
C23    C     0.18886   0.67899   0.02876   0.00000  Uiso   1.00
C24    C     0.11411   0.72726   0.04180   0.00000  Uiso   1.00
C25    C     0.07344   0.68669   0.06708   0.00000  Uiso   1.00
C26    C     0.06294   0.55761   0.10386   0.00000  Uiso   1.00
H27    H     0.20784   0.48609   0.07238   0.00000  Uiso   1.00
H28    H     0.27970   0.55556   0.03013   0.00000  Uiso   1.00
H29    H     0.22170   0.70817   0.00948   0.00000  Uiso   1.00
H30    H     1.01580   0.72299   0.07700   0.00000  Uiso   1.00
H31    H     0.08356   0.49067   0.14997   0.00000  Uiso   1.00
H32    H     1.00644   0.59633   0.12684   0.00000  Uiso   1.00
C33    C     0.90393   0.39212   0.92365   0.00000  Uiso   1.00
C34    C    -0.06256   0.30606   0.93270   0.00000  Uiso   1.00
C35    C    -0.05263   0.43413   0.89950   0.00000  Uiso   1.00
C36    C    -0.01734   0.48028   0.94282   0.00000  Uiso   1.00
C37    C    -0.02267   0.48092   0.01253   0.00000  Uiso   1.00
C38    C     0.82928   0.43815   0.93893   0.00000  Uiso   1.00
C39    C     0.78865   0.39880   0.96277   0.00000  Uiso   1.00
C40    C     0.89689   0.26561   0.95734   0.00000  Uiso   1.00
H41    H     0.80265   0.50448   0.93244   0.00000  Uiso   1.00
H42    H     0.73104   0.43471   0.97453   0.00000  Uiso   1.00
H43    H     0.78932   0.28346   0.99189   0.00000  Uiso   1.00
H44    H    -0.00488   0.27028   0.92169   0.00000  Uiso   1.00
H45    H     0.92857   0.49998   0.85170   0.00000  Uiso   1.00
C46    C     0.02199   0.51631   0.06217   0.00000  Uiso   1.00
C47    C     0.02383   0.51817   0.99297   0.00000  Uiso   1.00
H48    H     0.03947   0.44067   0.92133   0.00000  Uiso   1.00
H49    H     0.92093   0.52162   0.03359   0.00000  Uiso   1.00
H50    H    -0.00454   0.41275   0.05758   0.00000  Uiso   1.00
H51    H    -0.03695   0.54861   0.89816   0.00000  Uiso   1.00
H52    H     0.00456   0.39393   0.87957   0.00000  Uiso   1.00
H53    H     0.96599   0.55586   0.08522   0.00000  Uiso   1.00
H54    H     0.04226   0.44741   0.10576   0.00000  Uiso   1.00
N55    N     0.06701   0.55319   0.03966   0.00000  Uiso   1.00
N56    N     0.93925   0.44198   0.96367   0.00000  Uiso   1.00
C57    C     0.82208   0.31295   0.97225   0.00000  Uiso   1.00
C58    C     0.33470   1.07794   0.84533   0.00000  Uiso   1.00
C59    C     0.38079   1.06390   0.78013   0.00000  Uiso   1.00
C60    C     0.36665   1.03693   0.74887   0.00000  Uiso   1.00
C61    C     0.30639   1.02402   0.78217   0.00000  Uiso   1.00
C62    C     0.25988   1.03744   0.84760   0.00000  Uiso   1.00
C63    C     0.27445   0.06421   0.87907   0.00000  Uiso   1.00
C64    C     0.34943   0.10875   0.87770   0.00000  Uiso   1.00
H65    H     0.42747   1.07415   0.75346   0.00000  Uiso   1.00
H66    H     0.40234   1.02633   0.69854   0.00000  Uiso   1.00
H67    H     0.29623   1.00324   0.75707   0.00000  Uiso   1.00
H68    H     0.23876   0.07488   0.92946   0.00000  Uiso   1.00
H69    H     0.35710   1.16790   0.83170   0.00000  Uiso   1.00
H70    H     0.30333   0.12736   0.92278   0.00000  Uiso   1.00
C71    C     0.67704  -0.08065   0.14265   0.00000  Uiso   1.00
C72    C     0.73699   0.93311   0.11073   0.00000  Uiso   1.00
C73    C     0.66165   0.89386   0.10595   0.00000  Uiso   1.00
C74    C     0.57893   0.94058   0.04352   0.00000  Uiso   1.00
C75    C     0.51430   1.01832   1.00829   0.00000  Uiso   1.00
C76    C     0.63182  -0.07145   0.20995   0.00000  Uiso   1.00
C77    C     0.64675  -0.04974   0.24527   0.00000  Uiso   1.00
C78    C     0.75229  -0.04510   0.14606   0.00000  Uiso   1.00
H79    H     0.58525  -0.08159   0.23522   0.00000  Uiso   1.00
H80    H     0.61166  -0.04278   0.29721   0.00000  Uiso   1.00
H81    H     0.71751  -0.02016   0.24197   0.00000  Uiso   1.00
H82    H     0.77188   0.92641   1.05860   0.00000  Uiso   1.00
H83    H     0.65427   0.83400   0.14918   0.00000  Uiso   1.00
C84    C     0.43004   0.06841   0.93892   0.00000  Uiso   1.00
C85    C     0.49458   0.99270   0.97460   0.00000  Uiso   1.00
H86    H     0.62448   0.92018  -0.00106   0.00000  Uiso   1.00
H87    H     0.46859   0.03899   1.05255   0.00000  Uiso   1.00
H88    H     0.52693   1.07389   0.96303   0.00000  Uiso   1.00
H89    H     0.56610   0.88510   0.08889   0.00000  Uiso   1.00
H90    H     0.70729   0.87821   0.05944   0.00000  Uiso   1.00
H91    H     0.38407   0.08953   0.98288   0.00000  Uiso   1.00
H92    H     0.44248   1.12384   0.89219   0.00000  Uiso   1.00
N93    N     0.41350   1.03885   0.90915   0.00000  Uiso   1.00
N94    N     0.59724   0.96599   0.07561   0.00000  Uiso   1.00
C95    C     0.70685  -0.03697   0.21375   0.00000  Uiso   1.00
C96    C     0.05826   0.01427   0.22202   0.00000  Uiso   1.00
C97    C     0.13280  -0.03398   0.20672   0.00000  Uiso   1.00
C98    C     0.16657  -0.07948   0.16311   0.00000  Uiso   1.00
C99    C     0.12627  -0.07772   0.13484   0.00000  Uiso   1.00
C100   C     0.05164  -0.03008   0.14985   0.00000  Uiso   1.00
C101   C     1.01787   0.01604   0.19338   0.00000  Uiso   1.00
C102   C     1.02259   0.06415   0.26794   0.00000  Uiso   1.00
H103   H     0.16472  -0.03582   0.22819   0.00000  Uiso   1.00
H104   H     0.22411  -0.11613   0.15114   0.00000  Uiso   1.00
H105   H     0.15348  -0.11327   0.10098   0.00000  Uiso   1.00
H106   H     0.96035   0.05362   0.20460   0.00000  Uiso   1.00
H107   H     0.04562   0.10903   0.24071   0.00000  Uiso   1.00
H108   H     0.96437   0.10440   0.26932   0.00000  Uiso   1.00
C109   C     0.95249   0.98484   0.77035   0.00000  Uiso   1.00
C110   C    -0.00711   0.98288   0.79914   0.00000  Uiso   1.00
C111   C    -0.01160   0.93856   0.72123   0.00000  Uiso   1.00
C112   C     0.00277   0.95890   0.59837   0.00000  Uiso   1.00
C113   C    -0.01432   0.02746   0.52016   0.00000  Uiso   1.00
C114   C     0.87781   1.02976   0.78855   0.00000  Uiso   1.00
C115   C     0.84394   1.07236   0.83466   0.00000  Uiso   1.00
C116   C     0.95896   1.02553   0.84571   0.00000  Uiso   1.00
H117   H     0.84587   1.03156   0.76713   0.00000  Uiso   1.00
H118   H     0.78634   1.10684   0.84849   0.00000  Uiso   1.00
H119   H     0.85696   1.10403   0.89859   0.00000  Uiso   1.00
H120   H     0.05051   0.94751   0.78599   0.00000  Uiso   1.00
H121   H    -0.03147   0.89062   0.74817   0.00000  Uiso   1.00
C122   C     0.00253   0.04941   0.39035   0.00000  Uiso   1.00
C123   C     0.01714   0.98295   0.46970   0.00000  Uiso   1.00
H124   H     0.06167   0.92019   0.59255   0.00000  Uiso   1.00
H125   H     0.92688   0.06642   0.52575   0.00000  Uiso   1.00
H126   H     0.00860   0.07205   0.49424   0.00000  Uiso   1.00
H127   H    -0.02022   0.91435   0.62421   0.00000  Uiso   1.00
H128   H     0.04715   0.90210   0.71622   0.00000  Uiso   1.00
H129   H     0.94392   0.08884   0.39420   0.00000  Uiso   1.00
H130   H     0.02638   0.09310   0.36430   0.00000  Uiso   1.00
N131   N     0.03453   0.00242   0.34516   0.00000  Uiso   1.00
N132   N     0.97207   1.00276   0.64596   0.00000  Uiso   1.00
C133   C     0.88424   1.07062   0.86290   0.00000  Uiso   1.00
loop_
_geom_bond_atom_site_label_1
_geom_bond_atom_site_label_2
_geom_bond_distance
_geom_bond_site_symmetry_2
_ccdc_geom_bond_type
Y0     O2      2.252   .     S
Y0     O6      2.261   .     S
Y0     O10     2.272   .     S
Y0     O3      2.259   1_554 S
Y0     O7      2.253   1_554 S
Y0     O9      2.254   1_645 S
Y0     O11     2.275   1_545 S
Y1     O5      2.272   .     S
Y1     O13     2.253   .     S
Y1     O15     2.259   .     S
Y1     O3      2.253   1_465 S
Y1     O8      2.276   1_565 S
Y1     O9      2.259   1_556 S
Y1     O16     2.256   1_556 S
O2     C12     1.285   1_654 A
O3     Y0      2.259   1_556 S
O3     Y1      2.253   1_645 S
O3     C14     1.371   1_645 S
C4     O15     1.261   .     A
C4     C62     1.475   .     S
C4     O16     1.260   1_556 A
O5     C14     1.211   .     D
O6     C17     1.261   .     A
O7     Y0      2.253   1_556 S
O7     C17     1.259   1_556 A
O8     C12     1.286   .     A
O8     Y1      2.276   1_545 S
O9     Y0      2.254   1_465 S
O9     Y1      2.259   1_554 S
O9     C19     1.371   1_465 S
O10    C19     1.212   .     D
O11    C18     1.286   .     A
O11    Y0      2.275   1_565 S
C12    O2      1.285   1_456 A
C12    C40     1.482   1_455 S
O13    C18     1.285   1_456 A
C14    O3      1.371   1_465 S
C14    C116    1.474   1_455 S
O16    Y1      2.256   1_554 S
O16    C4      1.260   1_554 A
C17    C78     1.474   .     S
C17    O7      1.259   1_554 A
C18    O13     1.285   1_654 A
C18    C24     1.483   1_655 S
C19    O9      1.371   1_645 S
C19    C100    1.473   1_655 S
C20    C21     1.402   .     A
C20    C25     1.404   .     A
C20    C26     1.502   .     S
C21    C22     1.396   .     A
C21    H27     1.083   .     S
C22    C23     1.398   .     A
C22    H28     1.083   .     S
C23    C24     1.407   .     A
C23    H29     1.083   .     S
C24    C25     1.408   .     A
C24    C18     1.483   1_455 S
C25    H30     1.084   1_455 S
C26    H31     1.113   .     S
C26    N55     1.463   .     S
C26    H32     1.114   1_455 S
H30    C25     1.084   1_655 S
H32    C26     1.114   1_655 S
C33    C38     1.402   .     A
C33    C34     1.404   1_655 A
C33    C35     1.503   1_655 S
C34    H44     1.084   .     S
C34    C33     1.404   1_455 A
C34    C40     1.408   1_455 A
C35    H52     1.113   .     S
C35    C33     1.503   1_455 S
C35    H45     1.112   1_455 S
C35    N56     1.463   1_455 S
C36    H48     1.114   .     S
C36    H51     1.113   .     S
C36    C37     1.524   1_556 S
C36    N56     1.464   1_455 S
C37    H50     1.112   .     S
C37    C36     1.524   1_554 S
C37    C47     1.527   1_554 S
C37    H49     1.112   1_455 S
C38    C39     1.397   .     A
C38    H41     1.083   .     S
C39    H42     1.083   .     S
C39    C57     1.397   .     A
C40    C57     1.407   .     A
C40    C34     1.408   1_655 A
C40    C12     1.482   1_655 S
H43    C57     1.084   .     S
H45    C35     1.112   1_655 S
C46    H54     1.112   .     S
C46    N55     1.461   .     S
C46    C47     1.521   1_554 S
C46    H53     1.113   1_455 S
C47    C37     1.527   1_556 S
C47    C46     1.521   1_556 S
H49    C37     1.112   1_655 S
H53    C46     1.113   1_655 S
N56    C35     1.463   1_655 S
N56    C36     1.464   1_655 S
C58    C59     1.403   .     A
C58    C63     1.405   1_565 A
C58    C64     1.503   1_565 S
C59    C60     1.397   .     A
C59    H65     1.083   .     S
C60    C61     1.397   .     A
C60    H66     1.082   .     S
C61    C62     1.404   .     A
C61    H67     1.083   .     S
C62    C63     1.406   1_565 A
C63    H68     1.084   .     S
C63    C58     1.405   1_545 A
C63    C62     1.406   1_545 A
C64    H70     1.114   .     S
C64    C58     1.503   1_545 S
C64    H69     1.114   1_545 S
C64    N93     1.464   1_545 S
H69    C64     1.114   1_565 S
C71    C76     1.403   .     A
C71    C72     1.404   1_545 A
C71    C73     1.503   1_545 S
C72    C71     1.404   1_565 A
C72    C78     1.406   1_565 A
C72    H82     1.083   1_554 S
C73    H83     1.114   .     S
C73    H90     1.113   .     S
C73    N94     1.464   .     S
C73    C71     1.503   1_565 S
C74    H86     1.114   .     S
C74    H89     1.113   .     S
C74    N94     1.464   .     S
C74    C75     1.524   1_554 S
C75    C85     1.527   .     S
C75    H88     1.112   .     S
C75    C74     1.524   1_556 S
C75    H87     1.112   1_565 S
C76    C77     1.397   .     A
C76    H79     1.083   .     S
C77    H80     1.083   .     S
C77    C95     1.397   .     A
C78    C95     1.404   .     A
C78    C72     1.406   1_545 A
H81    C95     1.083   .     S
H82    C72     1.083   1_556 S
C84    H91     1.113   .     S
C84    C85     1.522   1_545 S
C84    H92     1.113   1_545 S
C84    N93     1.462   1_545 S
C85    C84     1.522   1_565 S
H87    C75     1.112   1_545 S
H92    C84     1.113   1_565 S
N93    C64     1.464   1_565 S
N93    C84     1.462   1_565 S
C96    C97     1.403   .     A
C96    C101    1.405   1_455 A
C96    C102    1.503   1_455 S
C97    C98     1.397   .     A
C97    H103    1.083   .     S
C98    C99     1.397   .     A
C98    H104    1.083   .     S
C99    C100    1.404   .     A
C99    H105    1.083   .     S
C100   C101    1.405   1_455 A
C100   C19     1.473   1_455 S
C101   H106    1.083   .     S
C101   C96     1.405   1_655 A
C101   C100    1.405   1_655 A
C102   H108    1.113   .     S
C102   C96     1.503   1_655 S
C102   H107    1.112   1_655 S
C102   N131    1.464   1_655 S
H107   C102    1.112   1_455 S
C109   C114    1.404   .     A
C109   C110    1.406   1_655 A
C109   C111    1.503   1_655 S
C110   H120    1.083   .     S
C110   C109    1.406   1_455 A
C110   C116    1.406   1_455 A
C111   H121    1.112   .     S
C111   H128    1.113   .     S
C111   C109    1.503   1_455 S
C111   N132    1.463   1_455 S
C112   H124    1.114   .     S
C112   H127    1.113   .     S
C112   C113    1.524   1_565 S
C112   N132    1.463   1_455 S
C113   H126    1.112   .     S
C113   C112    1.524   1_545 S
C113   C123    1.526   1_545 S
C113   H125    1.112   1_455 S
C114   C115    1.397   .     A
C114   H117    1.083   .     S
C115   H118    1.082   .     S
C115   C133    1.397   .     A
C116   C133    1.404   .     A
C116   C110    1.406   1_655 A
C116   C14     1.474   1_655 S
H119   C133    1.083   .     S
C122   H130    1.113   .     S
C122   N131    1.461   .     S
C122   C123    1.523   1_545 S
C122   H129    1.113   1_455 S
C123   C113    1.526   1_565 S
C123   C122    1.523   1_565 S
H125   C113    1.112   1_655 S
H129   C122    1.113   1_655 S
N131   C102    1.464   1_455 S
N132   C111    1.463   1_655 S
N132   C112    1.463   1_655 S
