data_pcu+N155+E220
_audit_creation_date              2023-11-17
_audit_creation_method            'Materials Studio'
_symmetry_space_group_name_H-M    'P1'
_symmetry_Int_Tables_number       1
_symmetry_cell_setting            triclinic
loop_
_symmetry_equiv_pos_as_xyz
  x,y,z
_cell_length_a                    10.7487
_cell_length_b                    11.3480
_cell_length_c                    13.8311
_cell_angle_alpha                 90.6788
_cell_angle_beta                  85.3602
_cell_angle_gamma                 84.3544
loop_
_atom_site_label
_atom_site_type_symbol
_atom_site_fract_x
_atom_site_fract_y
_atom_site_fract_z
_atom_site_U_iso_or_equiv
_atom_site_adp_type
_atom_site_occupancy
C0     C     0.01358   0.00537   0.29279   0.00000  Uiso   1.00
Ho1    Ho    0.01047   0.00769   0.10638   0.00000  Uiso   1.00
C2     C     1.01296   1.00174   0.70860   0.00000  Uiso   1.00
Ho3    Ho    1.01468   1.00346   0.89474   0.00000  Uiso   1.00
O4     O     0.11393   0.00646   0.23582   0.00000  Uiso   1.00
O5     O     0.91199   0.00770   0.25007   0.00000  Uiso   1.00
O6     O     0.20736   0.00198   0.14332   0.00000  Uiso   1.00
O7     O     0.15820   1.00050   0.99412   0.00000  Uiso   1.00
C8     C     0.25086  -0.00142   1.05843   0.00000  Uiso   1.00
C9     C     0.77403   1.01188  -0.05768   0.00000  Uiso   1.00
O10    O     0.02422   0.81550   0.08378   0.00000  Uiso   1.00
O11    O     1.01978   0.81105   0.91758   0.00000  Uiso   1.00
O12    O     0.91193   1.00484   0.76500   0.00000  Uiso   1.00
O13    O     0.11425   0.99832   0.75187   0.00000  Uiso   1.00
O14    O     0.81763   1.01206   0.85734   0.00000  Uiso   1.00
O15    O     0.86650   0.01025   0.00643   0.00000  Uiso   1.00
O16    O     1.00465   0.19692   0.91694   0.00000  Uiso   1.00
O17    O    -0.00129   0.20082   0.08438   0.00000  Uiso   1.00
C18    C     1.00009   0.25204   1.00057   0.00000  Uiso   1.00
C19    C     0.01748   0.76043   0.00146   0.00000  Uiso   1.00
C20    C     0.00645   0.63122   0.00352   0.00000  Uiso   1.00
C21    C     0.91245   0.57928   0.06332   0.00000  Uiso   1.00
C22    C     0.91336   0.45450   0.06225   0.00000  Uiso   1.00
C23    C     0.99934   0.38217   0.99988   0.00000  Uiso   1.00
C24    C     0.08485   0.43461   0.93685   0.00000  Uiso   1.00
C25    C     0.08888   0.55763   0.93895   0.00000  Uiso   1.00
O26    O     0.70474   0.60241   0.14037   0.00000  Uiso   1.00
O27    O    -0.18083   0.75518   0.15199   0.00000  Uiso   1.00
N28    N     0.80950   0.64883   0.11873   0.00000  Uiso   1.00
H29    H     0.14994   0.38012   0.88675   0.00000  Uiso   1.00
H30    H     0.15761   0.59549   0.89020   0.00000  Uiso   1.00
H31    H     0.84419   0.41332   0.10780   0.00000  Uiso   1.00
C32    C     0.38513  -0.00193   0.02873   0.00000  Uiso   1.00
C33    C     0.47027   0.89495   0.03217   0.00000  Uiso   1.00
C34    C     0.59770   0.90227   0.00361   0.00000  Uiso   1.00
C35    C     0.64023   1.00847   0.97157   0.00000  Uiso   1.00
C36    C     0.55530   0.10915   0.96712   0.00000  Uiso   1.00
C37    C     0.42826   0.10382   0.99510   0.00000  Uiso   1.00
O38    O     0.49177   0.68416   1.02674   0.00000  Uiso   1.00
O39    O     0.33391   0.77548   0.12401   0.00000  Uiso   1.00
N40    N     0.42985   0.78210   0.06137   0.00000  Uiso   1.00
H41    H     0.58767   0.19182   0.94202   0.00000  Uiso   1.00
H42    H     0.36373   0.18298   0.99175   0.00000  Uiso   1.00
H43    H     0.66531   0.82494   0.00584   0.00000  Uiso   1.00
C44    C     1.01491   1.00138   0.39893   0.00000  Uiso   1.00
C45    C    -0.03029   0.90641   0.45177   0.00000  Uiso   1.00
C46    C    -0.03181   0.90795   0.55361   0.00000  Uiso   1.00
C47    C     0.01334   0.00191   0.60267   0.00000  Uiso   1.00
C48    C     1.06081   0.09475   0.54986   0.00000  Uiso   1.00
C49    C     1.06228   0.09410   0.44844   0.00000  Uiso   1.00
O50    O     0.00378   0.70480   0.40271   0.00000  Uiso   1.00
O51    O     0.82014   0.80663   0.37499   0.00000  Uiso   1.00
N52    N    -0.06693   0.80498   0.40297   0.00000  Uiso   1.00
H53    H     1.09440   0.16843   0.58757   0.00000  Uiso   1.00
H54    H     1.09887   0.16665   0.40807   0.00000  Uiso   1.00
H55    H    -0.06541   0.83469   0.59455   0.00000  Uiso   1.00
loop_
_geom_bond_atom_site_label_1
_geom_bond_atom_site_label_2
_geom_bond_distance
_geom_bond_site_symmetry_2
_ccdc_geom_bond_type
C0     O4      1.284   .     A
C0     O5      1.281   1_455 A
C0     C44     1.470   1_445 S
Ho1    O4      2.182   .     S
Ho1    O6      2.212   .     S
Ho1    O17     2.209   .     S
Ho1    O5      2.175   1_455 S
Ho1    O7      2.124   1_544 S
Ho1    O10     2.188   1_545 S
Ho1    O15     2.155   1_455 S
C2     O12     1.282   .     A
C2     O13     1.282   1_655 A
C2     C47     1.465   1_665 S
Ho3    O11     2.206   .     S
Ho3    O12     2.181   .     S
Ho3    O14     2.214   .     S
Ho3    O7      2.146   1_655 S
Ho3    O13     2.167   1_655 S
Ho3    O15     2.122   1_566 S
Ho3    O16     2.204   1_565 S
O5     C0      1.281   1_655 A
O5     Ho1     2.175   1_655 S
O6     C8      1.227   1_554 D
O7     Ho1     2.124   1_566 S
O7     Ho3     2.146   1_455 S
O7     C8      1.387   1_565 S
C8     O6      1.227   1_556 D
C8     O7      1.387   1_545 S
C8     C32     1.468   1_556 S
C9     O14     1.230   1_554 D
C9     O15     1.383   1_565 S
C9     C35     1.467   1_554 S
O10    C19     1.303   .     A
O10    Ho1     2.188   1_565 S
O11    C19     1.300   1_656 A
O13    C2      1.282   1_455 A
O13    Ho3     2.167   1_455 S
O14    C9      1.230   1_556 D
O15    Ho1     2.155   1_655 S
O15    Ho3     2.122   1_544 S
O15    C9      1.383   1_545 S
O16    C18     1.304   .     A
O16    Ho3     2.204   1_545 S
O17    C18     1.303   1_454 A
C18    C23     1.476   .     S
C18    O17     1.303   1_656 A
C19    C20     1.483   .     S
C19    O11     1.300   1_454 A
C20    C21     1.430   1_455 A
C20    C25     1.410   1_554 A
C21    C22     1.415   .     A
C21    N28     1.453   .     S
C21    C20     1.430   1_655 A
C22    H31     1.081   .     S
C22    C23     1.406   1_554 A
C23    C22     1.406   1_556 A
C23    C24     1.396   1_655 A
C24    C25     1.401   .     A
C24    H29     1.086   .     S
C24    C23     1.396   1_455 A
C25    H30     1.083   .     S
C25    C20     1.410   1_556 A
O26    N28     1.304   .     A
O27    N28     1.303   1_455 A
N28    O27     1.303   1_655 A
C32    C33     1.417   1_545 A
C32    C37     1.400   1_554 A
C32    C8      1.468   1_554 S
C33    C34     1.405   .     A
C33    N40     1.444   .     S
C33    C32     1.417   1_565 A
C34    H43     1.085   .     S
C34    C35     1.395   1_554 A
C35    C34     1.395   1_556 A
C35    C36     1.396   1_565 A
C35    C9      1.467   1_556 S
C36    C37     1.396   .     A
C36    H41     1.083   .     S
C36    C35     1.396   1_545 A
C37    H42     1.083   .     S
C37    C32     1.400   1_556 A
O38    N40     1.303   1_556 A
O39    N40     1.301   .     A
N40    O38     1.303   1_554 A
C44    C45     1.413   1_655 A
C44    C49     1.407   1_565 A
C44    C0      1.470   1_665 S
C45    C46     1.407   .     A
C45    N52     1.432   .     S
C45    C44     1.413   1_455 A
C46    H55     1.086   .     S
C46    C47     1.404   1_565 A
C47    C46     1.404   1_545 A
C47    C48     1.403   1_455 A
C47    C2      1.465   1_445 S
C48    C49     1.402   .     A
C48    H53     1.087   .     S
C48    C47     1.403   1_655 A
C49    H54     1.088   .     S
C49    C44     1.407   1_545 A
O50    N52     1.304   .     A
O51    N52     1.302   1_655 A
N52    O51     1.302   1_455 A
