data_pcu+N106+E8
_audit_creation_date              2023-11-17
_audit_creation_method            'Materials Studio'
_symmetry_space_group_name_H-M    'P1'
_symmetry_Int_Tables_number       1
_symmetry_cell_setting            triclinic
loop_
_symmetry_equiv_pos_as_xyz
  x,y,z
_cell_length_a                    16.2849
_cell_length_b                    13.3463
_cell_length_c                    12.3128
_cell_angle_alpha                 68.5616
_cell_angle_beta                  69.3334
_cell_angle_gamma                 82.9241
loop_
_atom_site_label
_atom_site_type_symbol
_atom_site_fract_x
_atom_site_fract_y
_atom_site_fract_z
_atom_site_U_iso_or_equiv
_atom_site_adp_type
_atom_site_occupancy
Y0     Y     0.89645  -0.00434   0.03007   0.00000  Uiso   1.00
Y1     Y     0.10365   1.00441   0.97027   0.00000  Uiso   1.00
O2     O     0.91945   0.17162  -0.01624   0.00000  Uiso   1.00
O3     O     1.01223   0.07409   0.86020   0.00000  Uiso   1.00
C4     C     0.27046   1.01669   0.96005   0.00000  Uiso   1.00
O5     O     0.11899   0.97859   0.79164   0.00000  Uiso   1.00
O6     O     0.75809  -0.07023   0.12762   0.00000  Uiso   1.00
O7     O     0.78758   0.04319   0.94763   0.00000  Uiso   1.00
O8     O     0.05234   0.15931   1.00591   0.00000  Uiso   1.00
O9     O    -0.01213   0.92604   0.14014   0.00000  Uiso   1.00
O10    O     0.88108   0.02148   0.20873   0.00000  Uiso   1.00
O11    O     0.94781   0.84083  -0.00568   0.00000  Uiso   1.00
C12    C    -0.01749   0.21204   0.99460   0.00000  Uiso   1.00
O13    O     0.08059   0.82842   1.01675   0.00000  Uiso   1.00
C14    C     0.05301   1.02423   0.77545   0.00000  Uiso   1.00
O15    O     0.24200   1.07037   0.87276   0.00000  Uiso   1.00
O16    O     0.21257   0.95674   0.05262   0.00000  Uiso   1.00
C17    C     0.72968  -0.01670   0.04024   0.00000  Uiso   1.00
C18    C     1.01760   0.78807   0.00572   0.00000  Uiso   1.00
C19    C     0.94712  -0.02406   0.22485   0.00000  Uiso   1.00
C20    C     0.96260   0.53092  -0.00494   0.00000  Uiso   1.00
C21    C     0.03735   0.46900   1.00584   0.00000  Uiso   1.00
N22    N     0.10424   0.51196   1.01649   0.00000  Uiso   1.00
C23    C     0.09980   0.61424   1.01697   0.00000  Uiso   1.00
C24    C     0.02493   0.67670   1.00626   0.00000  Uiso   1.00
N25    N     0.95810   0.63301  -0.00452   0.00000  Uiso   1.00
N26    N     0.89585   0.48811  -0.01605   0.00000  Uiso   1.00
C27    C     0.90038   0.38593  -0.01684   0.00000  Uiso   1.00
C28    C     0.97517   0.32339  -0.00588   0.00000  Uiso   1.00
N29    N     0.04189   0.36696   1.00525   0.00000  Uiso   1.00
H30    H     0.15426   0.64631   1.02540   0.00000  Uiso   1.00
H31    H     0.84606   0.35401  -0.02572   0.00000  Uiso   1.00
C32    C     0.46957  -0.03575   1.05188   0.00000  Uiso   1.00
C33    C     0.53063   1.03552  -0.05173   0.00000  Uiso   1.00
N34    N     0.50573   1.09913  -0.14933   0.00000  Uiso   1.00
C35    C     0.42243   1.09464  -0.14819   0.00000  Uiso   1.00
C36    C     0.36112   1.02335  -0.04464   0.00000  Uiso   1.00
N37    N     0.38638  -0.04018   1.05313   0.00000  Uiso   1.00
N38    N     0.49442  -0.09918   1.14959   0.00000  Uiso   1.00
C39    C     0.57771  -0.09465   1.14849   0.00000  Uiso   1.00
C40    C     0.63904  -0.02344   0.04488   0.00000  Uiso   1.00
N41    N     0.61379   1.04004  -0.05293   0.00000  Uiso   1.00
H42    H     0.40427   1.14631  -0.22719   0.00000  Uiso   1.00
H43    H     0.59582  -0.14615   1.22759   0.00000  Uiso   1.00
C44    C    -0.03596   1.03186   0.48956   0.00000  Uiso   1.00
C45    C     1.03635  -0.03124   0.51033   0.00000  Uiso   1.00
N46    N     1.07778  -0.09081   0.43794   0.00000  Uiso   1.00
C47    C     1.05011  -0.09029   0.34563   0.00000  Uiso   1.00
C48    C     0.97760  -0.02758   0.32496   0.00000  Uiso   1.00
N49    N    -0.06376   1.03215   0.39769   0.00000  Uiso   1.00
N50    N    -0.07720   1.09174   0.56165   0.00000  Uiso   1.00
C51    C    -0.04953   1.09122   0.65396   0.00000  Uiso   1.00
C52    C     0.02269   1.02804   0.67508   0.00000  Uiso   1.00
N53    N     1.06401  -0.03174   0.60240   0.00000  Uiso   1.00
H54    H     1.08423  -0.13856   0.28931   0.00000  Uiso   1.00
H55    H    -0.08339   1.13987   0.70993   0.00000  Uiso   1.00
loop_
_geom_bond_atom_site_label_1
_geom_bond_atom_site_label_2
_geom_bond_distance
_geom_bond_site_symmetry_2
_ccdc_geom_bond_type
Y0     O2      2.251   .     S
Y0     O6      2.258   .     S
Y0     O10     2.273   .     S
Y0     O3      2.264   1_554 S
Y0     O7      2.258   1_554 S
Y0     O9      2.254   1_645 S
Y0     O11     2.268   1_545 S
Y1     O5      2.272   .     S
Y1     O13     2.251   .     S
Y1     O15     2.258   .     S
Y1     O3      2.254   1_465 S
Y1     O8      2.268   1_565 S
Y1     O9      2.264   1_556 S
Y1     O16     2.258   1_556 S
O2     C12     1.284   1_654 A
O3     Y0      2.264   1_556 S
O3     Y1      2.254   1_645 S
O3     C14     1.372   1_645 S
C4     O15     1.261   .     A
C4     O16     1.260   1_556 A
C4     C36     1.470   1_556 S
O5     C14     1.211   .     D
O6     C17     1.261   .     A
O7     Y0      2.258   1_556 S
O7     C17     1.260   1_556 A
O8     C12     1.285   .     A
O8     Y1      2.268   1_545 S
O9     Y0      2.254   1_465 S
O9     Y1      2.264   1_554 S
O9     C19     1.372   1_465 S
O10    C19     1.211   .     D
O11    C18     1.285   .     A
O11    Y0      2.268   1_565 S
C12    O2      1.284   1_456 A
C12    C28     1.474   1_456 S
O13    C18     1.284   1_456 A
C14    C52     1.467   .     S
C14    O3      1.372   1_465 S
O16    Y1      2.258   1_554 S
O16    C4      1.260   1_554 A
C17    C40     1.470   .     S
C17    O7      1.260   1_554 A
C18    O13     1.284   1_654 A
C18    C24     1.474   1_654 S
C19    C48     1.467   .     S
C19    O9      1.372   1_645 S
C20    N25     1.357   .     A
C20    N26     1.357   .     A
C20    C21     1.403   1_654 A
C21    N22     1.357   .     A
C21    N29     1.357   .     A
C21    C20     1.403   1_456 A
N22    C23     1.360   .     A
C23    C24     1.408   .     A
C23    H30     1.082   .     S
C24    N25     1.363   1_456 A
C24    C18     1.474   1_456 S
N25    C24     1.363   1_654 A
N26    C27     1.360   .     A
C27    C28     1.408   .     A
C27    H31     1.082   .     S
C28    N29     1.363   1_654 A
C28    C12     1.474   1_654 S
N29    C28     1.363   1_456 A
C32    N37     1.358   .     A
C32    N38     1.357   .     A
C32    C33     1.404   1_546 A
C33    N34     1.357   .     A
C33    N41     1.358   .     A
C33    C32     1.404   1_564 A
N34    C35     1.360   .     A
C35    C36     1.406   .     A
C35    H42     1.082   .     S
C36    N37     1.362   1_564 A
C36    C4      1.470   1_554 S
N37    C36     1.362   1_546 A
N38    C39     1.360   .     A
C39    H43     1.082   .     S
C39    C40     1.406   1_556 A
C40    C39     1.406   1_554 A
C40    N41     1.362   1_545 A
N41    C40     1.362   1_565 A
C44    N49     1.357   .     A
C44    N50     1.358   .     A
C44    C45     1.404   1_465 A
C45    N46     1.358   .     A
C45    N53     1.357   .     A
C45    C44     1.404   1_645 A
N46    C47     1.360   .     A
C47    C48     1.405   .     A
C47    H54     1.082   .     S
C48    N49     1.362   1_645 A
N49    C48     1.362   1_465 A
N50    C51     1.360   .     A
C51    C52     1.405   .     A
C51    H55     1.082   .     S
C52    N53     1.362   1_465 A
N53    C52     1.362   1_645 A
