data_pcu+N205+E183
_audit_creation_date              2023-11-17
_audit_creation_method            'Materials Studio'
_symmetry_space_group_name_H-M    'P1'
_symmetry_Int_Tables_number       1
_symmetry_cell_setting            triclinic
loop_
_symmetry_equiv_pos_as_xyz
  x,y,z
_cell_length_a                    15.0863
_cell_length_b                    16.9326
_cell_length_c                    10.8016
_cell_angle_alpha                 104.0188
_cell_angle_beta                  125.0337
_cell_angle_gamma                 86.9315
loop_
_atom_site_label
_atom_site_type_symbol
_atom_site_fract_x
_atom_site_fract_y
_atom_site_fract_z
_atom_site_U_iso_or_equiv
_atom_site_adp_type
_atom_site_occupancy
Y0     Y     0.09800   0.12430   0.03686   0.00000  Uiso   1.00
Y1     Y     0.90220   0.87596   0.96334   0.00000  Uiso   1.00
C2     C     0.73393   0.92622   0.97566   0.00000  Uiso   1.00
C3     C     1.07080   0.02769   0.22549   0.00000  Uiso   1.00
C4     C     0.05741   0.28008   0.02215   0.00000  Uiso   1.00
C5     C     0.26619   0.07381   0.02453   0.00000  Uiso   1.00
C6     C    -0.07074   0.97264   0.77461   0.00000  Uiso   1.00
C7     C     0.94292   0.72020   0.97804   0.00000  Uiso   1.00
O8     O     0.72473   0.89635   0.84945   0.00000  Uiso   1.00
O9     O     0.82972   0.93000   0.09456   0.00000  Uiso   1.00
O10    O     1.10541   0.09811   0.23797   0.00000  Uiso   1.00
O11    O     1.05072   0.96890   0.11108   0.00000  Uiso   1.00
O12    O     0.01048   0.21932   0.90441   0.00000  Uiso   1.00
O13    O     0.12502   0.26023   0.14774   0.00000  Uiso   1.00
O14    O     0.27545   0.10383   0.15074   0.00000  Uiso   1.00
O15    O     0.17040   0.07006   0.90562   0.00000  Uiso   1.00
O16    O    -0.10530   0.90221   0.76220   0.00000  Uiso   1.00
O17    O    -0.05065   0.03143   0.88901   0.00000  Uiso   1.00
O18    O     0.98979   0.78096   0.09583   0.00000  Uiso   1.00
O19    O     0.87535   0.74006   0.85243   0.00000  Uiso   1.00
C20    C    -0.03507   0.63550  -0.01359   0.00000  Uiso   1.00
C21    C    -0.03688   0.48681   0.92144   0.00000  Uiso   1.00
C22    C     1.03713   0.51345   0.07878   0.00000  Uiso   1.00
S23    S    -0.05862   0.38506   0.83637   0.00000  Uiso   1.00
S24    S     1.10368   0.44348   0.18119   0.00000  Uiso   1.00
S25    S    -0.10331   0.55681   0.81900   0.00000  Uiso   1.00
S26    S     1.05891   0.61521   0.16385   0.00000  Uiso   1.00
C27    C     1.03542   0.36478   1.01378   0.00000  Uiso   1.00
C28    C     0.35648   0.04564   0.01572   0.00000  Uiso   1.00
C29    C     0.46539   0.98913   0.92075   0.00000  Uiso   1.00
C30    C     0.53463   0.01065   0.07940   0.00000  Uiso   1.00
S31    S     0.51523   0.94738   0.81628   0.00000  Uiso   1.00
S32    S     0.66700  -0.00549   0.16402   0.00000  Uiso   1.00
S33    S     0.33303   1.00533   0.83613   0.00000  Uiso   1.00
S34    S     0.48483   0.05250   0.18388   0.00000  Uiso   1.00
C35    C     0.64358   0.95427   0.98443   0.00000  Uiso   1.00
C36    C     1.04621   0.01751   0.33417   0.00000  Uiso   1.00
C37    C    -0.01435   0.03885   0.50513   0.00000  Uiso   1.00
C38    C     1.01477   0.96157   0.49543   0.00000  Uiso   1.00
S39    S    -0.06275   0.07342   0.61401   0.00000  Uiso   1.00
S40    S     1.00072   0.90389   0.59225   0.00000  Uiso   1.00
S41    S    -0.00052   0.09647   0.40804   0.00000  Uiso   1.00
S42    S     1.06302   0.92697   0.38635   0.00000  Uiso   1.00
C43    C    -0.04617   0.98281   0.66590   0.00000  Uiso   1.00
loop_
_geom_bond_atom_site_label_1
_geom_bond_atom_site_label_2
_geom_bond_distance
_geom_bond_site_symmetry_2
_ccdc_geom_bond_type
Y0     O13     2.259   .     S
Y0     O14     2.264   .     S
Y0     O10     2.261   1_455 S
Y0     O12     2.258   1_554 S
Y0     O15     2.255   1_554 S
Y0     O17     2.259   1_554 S
Y1     O8      2.264   .     S
Y1     O19     2.259   .     S
Y1     O9      2.255   1_556 S
Y1     O11     2.258   1_556 S
Y1     O16     2.261   1_655 S
Y1     O18     2.258   1_556 S
C2     O8      1.261   .     A
C2     C35     1.466   .     S
C2     O9      1.257   1_556 A
C3     O10     1.273   .     A
C3     C36     1.466   .     S
C3     O11     1.271   1_545 A
C4     O13     1.261   .     A
C4     O12     1.260   1_554 A
C4     C27     1.467   1_454 S
C5     O14     1.261   .     A
C5     C28     1.466   .     S
C5     O15     1.258   1_554 A
C6     O16     1.273   .     A
C6     C43     1.466   .     S
C6     O17     1.271   1_565 A
C7     O19     1.261   .     A
C7     O18     1.260   1_556 A
C7     C20     1.467   1_656 S
O9     Y1      2.255   1_554 S
O9     C2      1.257   1_554 A
O10    Y0      2.261   1_655 S
O11    Y1      2.258   1_554 S
O11    C3      1.271   1_565 A
O12    Y0      2.258   1_556 S
O12    C4      1.260   1_556 A
O15    Y0      2.255   1_556 S
O15    C5      1.258   1_556 A
O16    Y1      2.261   1_455 S
O17    Y0      2.259   1_556 S
O17    C6      1.271   1_545 A
O18    Y1      2.258   1_554 S
O18    C7      1.260   1_554 A
C20    S25     1.717   1_554 A
C20    S26     1.717   1_455 A
C20    C7      1.467   1_454 S
C21    S23     1.693   .     A
C21    S25     1.694   .     A
C21    C22     1.357   1_456 A
C22    S24     1.693   .     A
C22    S26     1.693   .     A
C22    C21     1.357   1_654 A
S23    C27     1.717   1_455 A
S24    C27     1.717   1_554 A
S25    C20     1.717   1_556 A
S26    C20     1.717   1_655 A
C27    S23     1.717   1_655 A
C27    S24     1.717   1_556 A
C27    C4      1.467   1_656 S
C28    S34     1.716   .     A
C28    S33     1.718   1_544 A
C29    S31     1.694   .     A
C29    S33     1.693   .     A
C29    C30     1.358   1_566 A
C30    S32     1.693   .     A
C30    S34     1.694   .     A
C30    C29     1.358   1_544 A
S31    C35     1.716   .     A
S32    C35     1.718   1_544 A
S33    C28     1.718   1_566 A
C35    S32     1.718   1_566 A
C36    S41     1.717   1_655 A
C36    S42     1.716   1_545 A
C37    S39     1.693   .     A
C37    S41     1.692   .     A
C37    C38     1.357   1_445 A
C38    S40     1.692   .     A
C38    S42     1.693   .     A
C38    C37     1.357   1_665 A
S39    C43     1.716   1_545 A
S40    C43     1.717   1_655 A
S41    C36     1.717   1_455 A
S42    C36     1.716   1_565 A
C43    S39     1.716   1_565 A
C43    S40     1.717   1_455 A
