data_pcu+N248+E15
_audit_creation_date              2023-11-17
_audit_creation_method            'Materials Studio'
_symmetry_space_group_name_H-M    'P1'
_symmetry_Int_Tables_number       1
_symmetry_cell_setting            triclinic
loop_
_symmetry_equiv_pos_as_xyz
  x,y,z
_cell_length_a                    10.5556
_cell_length_b                    10.1187
_cell_length_c                    13.0085
_cell_angle_alpha                 96.3621
_cell_angle_beta                  90.0466
_cell_angle_gamma                 89.6450
loop_
_atom_site_label
_atom_site_type_symbol
_atom_site_fract_x
_atom_site_fract_y
_atom_site_fract_z
_atom_site_U_iso_or_equiv
_atom_site_adp_type
_atom_site_occupancy
O0     O     0.78218   0.98664   0.91102   0.00000  Uiso   1.00
Yb1    Yb    0.98872  -0.01965   0.10743   0.00000  Uiso   1.00
C2     C     0.98732   0.99866   0.30313   0.00000  Uiso   1.00
Yb3    Yb   -0.01154   0.98227   0.88883   0.00000  Uiso   1.00
O4     O     0.78851  -0.01733   0.08761   0.00000  Uiso   1.00
C5     C     0.99397   0.23466   0.94292   0.00000  Uiso   1.00
C6     C     0.72805  -0.00864   0.00165   0.00000  Uiso   1.00
O7     O     0.98599   0.10012   0.76389   0.00000  Uiso   1.00
C8     C    -0.01336   0.00081   0.69423   0.00000  Uiso   1.00
O9     O     0.98919   0.77362   0.14311   0.00000  Uiso   1.00
O10    O    -0.00635   0.82663   0.98345   0.00000  Uiso   1.00
O11    O     0.18916  -0.01758   0.08797   0.00000  Uiso   1.00
O12    O    -0.01189   0.88723   0.72904   0.00000  Uiso   1.00
O13    O     0.19500   0.98661   0.91074   0.00000  Uiso   1.00
C14    C    -0.00375   0.73035   0.05108   0.00000  Uiso   1.00
C15    C     0.24923   0.99118   1.00166   0.00000  Uiso   1.00
O16    O    -0.01155   0.88384   0.24985   0.00000  Uiso   1.00
O17    O     0.98690   0.09662   0.25027   0.00000  Uiso   1.00
O18    O    -0.01254   0.18273   0.85343   0.00000  Uiso   1.00
O19    O     0.99199   0.14327   0.01604   0.00000  Uiso   1.00
N20    N     0.07501   0.43926   0.88675   0.00000  Uiso   1.00
N21    N     0.07592   0.56769   0.91510   0.00000  Uiso   1.00
C22    C     0.02095   0.59237   1.00845   0.00000  Uiso   1.00
C23    C     0.98429   0.47219   0.04285   0.00000  Uiso   1.00
C24    C     0.01949   0.37767   0.96113   0.00000  Uiso   1.00
H25    H     0.93184   0.45704   0.11194   0.00000  Uiso   1.00
H26    H     0.10931   0.39502   0.81571   0.00000  Uiso   1.00
H27    H     0.11057   0.63775   0.86910   0.00000  Uiso   1.00
N28    N     0.55024   0.09192   0.10191   0.00000  Uiso   1.00
N29    N     0.42595   0.09194   0.10187   0.00000  Uiso   1.00
C30    C     0.38461   0.02092   0.01493   0.00000  Uiso   1.00
C31    C     0.48869   0.97463   0.95478   0.00000  Uiso   1.00
C32    C     0.59231   0.02099   0.01494   0.00000  Uiso   1.00
H33    H     0.48902   0.90868   0.88337   0.00000  Uiso   1.00
H34    H     0.60526   0.13675   0.16270   0.00000  Uiso   1.00
H35    H     0.37043   0.13710   0.16250   0.00000  Uiso   1.00
N36    N     0.98535   0.15324   0.56186   0.00000  Uiso   1.00
N37    N     0.98567   0.15275   0.46102   0.00000  Uiso   1.00
C38    C     0.98663   0.02628   0.41650   0.00000  Uiso   1.00
C39    C    -0.01307   0.94048   0.49374   0.00000  Uiso   1.00
C40    C     0.98612   0.02709   0.58533   0.00000  Uiso   1.00
H41    H    -0.01233   0.83292   0.48477   0.00000  Uiso   1.00
H42    H     0.98485   0.23986   0.61370   0.00000  Uiso   1.00
H43    H     0.98543   0.23895   0.42360   0.00000  Uiso   1.00
loop_
_geom_bond_atom_site_label_1
_geom_bond_atom_site_label_2
_geom_bond_distance
_geom_bond_site_symmetry_2
_ccdc_geom_bond_type
O0     C6      1.307   1_566 A
O0     Yb3     2.196   1_655 S
Yb1    O4      2.129   .     S
Yb1    O17     2.086   .     S
Yb1    O19     2.137   .     S
Yb1    Yb3     2.846   1_644 S
Yb1    O9      2.192   1_545 S
Yb1    O10     2.113   1_644 S
Yb1    O11     2.132   1_655 S
Yb1    O16     2.188   1_645 S
C2     O16     1.285   1_655 A
C2     O17     1.267   1_565 A
C2     C38     1.470   1_565 S
Yb3    O10     2.104   .     S
Yb3    O12     2.191   .     S
Yb3    O13     2.199   .     S
Yb3    O0      2.196   1_455 S
Yb3    Yb1     2.846   1_466 S
Yb3    O7      2.120   1_465 S
Yb3    O18     2.129   1_565 S
Yb3    O19     2.190   1_466 S
O4     C6      1.298   .     A
C5     O18     1.225   1_655 D
C5     O19     1.398   1_556 S
C5     C24     1.467   1_655 S
C6     C32     1.468   .     S
C6     O0      1.307   1_544 A
O7     Yb3     2.120   1_645 S
O7     C8      1.276   1_655 A
C8     O7      1.276   1_455 A
C8     O12     1.281   1_545 A
C8     C40     1.470   1_455 S
O9     Yb1     2.192   1_565 S
O9     C14     1.231   1_655 D
O10    Yb1     2.113   1_466 S
O10    C14     1.383   1_556 S
O11    Yb1     2.132   1_455 S
O11    C15     1.302   1_544 A
O12    C8      1.281   1_565 A
O13    C15     1.310   .     A
C14    O9      1.231   1_455 D
C14    O10     1.383   1_554 S
C14    C22     1.466   1_554 S
C15    O11     1.302   1_566 A
C15    C30     1.468   1_566 S
O16    Yb1     2.188   1_465 S
O16    C2      1.285   1_455 A
O17    C2      1.267   1_545 A
O18    Yb3     2.129   1_545 S
O18    C5      1.225   1_455 D
O19    Yb3     2.190   1_644 S
O19    C5      1.398   1_554 S
N20    N21     1.311   .     A
N20    C24     1.344   .     A
N20    H26     1.045   .     S
N21    C22     1.344   .     A
N21    H27     1.045   .     S
C22    C23     1.398   1_456 A
C22    C14     1.466   1_556 S
C23    H25     1.082   .     S
C23    C22     1.398   1_654 A
C23    C24     1.398   1_654 A
C24    C23     1.398   1_456 A
C24    C5      1.467   1_455 S
N28    N29     1.312   .     A
N28    C32     1.345   .     A
N28    H34     1.045   .     S
N29    C30     1.345   .     A
N29    H35     1.045   .     S
C30    C31     1.397   1_544 A
C30    C15     1.468   1_544 S
C31    H33     1.082   .     S
C31    C30     1.397   1_566 A
C31    C32     1.397   1_566 A
C32    C31     1.397   1_544 A
N36    N37     1.311   .     A
N36    C40     1.345   .     A
N36    H42     1.045   .     S
N37    C38     1.345   .     A
N37    H43     1.045   .     S
C38    C39     1.399   1_645 A
C38    C2      1.470   1_545 S
C39    H41     1.082   .     S
C39    C38     1.399   1_465 A
C39    C40     1.399   1_465 A
C40    C39     1.399   1_645 A
C40    C8      1.470   1_655 S
