data_pcu+N155+E9
_audit_creation_date              2023-11-17
_audit_creation_method            'Materials Studio'
_symmetry_space_group_name_H-M    'P1'
_symmetry_Int_Tables_number       1
_symmetry_cell_setting            triclinic
loop_
_symmetry_equiv_pos_as_xyz
  x,y,z
_cell_length_a                    18.9443
_cell_length_b                    19.6027
_cell_length_c                    22.0429
_cell_angle_alpha                 89.8157
_cell_angle_beta                  90.1223
_cell_angle_gamma                 90.0682
loop_
_atom_site_label
_atom_site_type_symbol
_atom_site_fract_x
_atom_site_fract_y
_atom_site_fract_z
_atom_site_U_iso_or_equiv
_atom_site_adp_type
_atom_site_occupancy
C0     C     0.00038  -0.00231   0.18349   0.00000  Uiso   1.00
Ho1    Ho   -0.00004  -0.00192   0.06583   0.00000  Uiso   1.00
C2     C     1.00041   0.99890   0.81882   0.00000  Uiso   1.00
Ho3    Ho    1.00082   0.99855   0.93647   0.00000  Uiso   1.00
O4     O     0.05733  -0.00218   0.15204   0.00000  Uiso   1.00
O5     O     0.94372  -0.00225   0.15186   0.00000  Uiso   1.00
O6     O     0.10845  -0.00195   0.09992   0.00000  Uiso   1.00
O7     O     0.08585   0.99839   1.00188   0.00000  Uiso   1.00
C8     C     0.13522  -0.00175   1.04915   0.00000  Uiso   1.00
C9     C     0.86556   0.99835  -0.04686   0.00000  Uiso   1.00
O10    O     0.00079   0.88666   0.05332   0.00000  Uiso   1.00
O11    O     0.99994   0.88704   0.94901   0.00000  Uiso   1.00
O12    O     0.94345   0.99877   0.85026   0.00000  Uiso   1.00
O13    O     0.05706   0.99888   0.85045   0.00000  Uiso   1.00
O14    O     0.89234   0.99853   0.90237   0.00000  Uiso   1.00
O15    O     0.91492  -0.00174   0.00042   0.00000  Uiso   1.00
O16    O     0.99994   0.10996   0.94899   0.00000  Uiso   1.00
O17    O     0.00090   0.10959   0.05330   0.00000  Uiso   1.00
C18    C     1.00043   0.14081   1.00114   0.00000  Uiso   1.00
C19    C     0.00037   0.85582   0.00116   0.00000  Uiso   1.00
C20    C     1.00054   0.64246   0.00113   0.00000  Uiso   1.00
N21    N     1.00026   0.67789   0.94810   0.00000  Uiso   1.00
N22    N     1.00020   0.74585   0.94812   0.00000  Uiso   1.00
C23    C     1.00040   0.78089   0.00115   0.00000  Uiso   1.00
N24    N     0.00069   0.74544   0.05418   0.00000  Uiso   1.00
N25    N     0.00075   0.67748   0.05416   0.00000  Uiso   1.00
C26    C     1.00057   0.56753   0.00112   0.00000  Uiso   1.00
N27    N     1.00110   0.53212   0.05415   0.00000  Uiso   1.00
N28    N     1.00108   0.46414   0.05415   0.00000  Uiso   1.00
C29    C     1.00049   0.42910   0.00113   0.00000  Uiso   1.00
N30    N     0.99995   0.46451   0.94810   0.00000  Uiso   1.00
N31    N     0.99999   0.53249   0.94809   0.00000  Uiso   1.00
C32    C     1.00046   0.35418   0.00113   0.00000  Uiso   1.00
N33    N     0.99952   0.31914   0.94810   0.00000  Uiso   1.00
N34    N     0.99951   0.25117   0.94810   0.00000  Uiso   1.00
C35    C     1.00043   0.21574   0.00114   0.00000  Uiso   1.00
N36    N     0.00138   0.25079   0.05417   0.00000  Uiso   1.00
N37    N     0.00139   0.31876   0.05416   0.00000  Uiso   1.00
C38    C     0.35302   0.99836   1.02059   0.00000  Uiso   1.00
N39    N     0.30751   0.99846   0.97292   0.00000  Uiso   1.00
N40    N     0.23801   0.99844   0.98209   0.00000  Uiso   1.00
C41    C     0.21159   0.99832   1.03925   0.00000  Uiso   1.00
N42    N     0.25701  -0.00178   0.08695   0.00000  Uiso   1.00
N43    N     0.32651  -0.00176   0.07777   0.00000  Uiso   1.00
C44    C     0.42963   0.99834   1.01047   0.00000  Uiso   1.00
N45    N     0.47514  -0.00168   0.05813   0.00000  Uiso   1.00
N46    N     0.54463  -0.00171   0.04896   0.00000  Uiso   1.00
C47    C     0.57115   0.99827   0.99179   0.00000  Uiso   1.00
N48    N     0.52563   0.99829   0.94413   0.00000  Uiso   1.00
N49    N     0.45614   0.99832   0.95330   0.00000  Uiso   1.00
C50    C     0.64775   0.99826   0.98168   0.00000  Uiso   1.00
N51    N     0.67428   0.99830   0.92450   0.00000  Uiso   1.00
N52    N     0.74377   0.99832   0.91533   0.00000  Uiso   1.00
C53    C     0.78919   0.99830   0.96303   0.00000  Uiso   1.00
N54    N     0.76276  -0.00175   0.02018   0.00000  Uiso   1.00
N55    N     0.69327  -0.00177   0.02935   0.00000  Uiso   1.00
C56    C     0.00035  -0.00253   0.37298   0.00000  Uiso   1.00
N57    N     0.93864  -0.00243   0.34154   0.00000  Uiso   1.00
N58    N     0.93863  -0.00237   0.28109   0.00000  Uiso   1.00
C59    C     0.00035  -0.00246   0.24994   0.00000  Uiso   1.00
N60    N     0.06206   0.99737   0.28131   0.00000  Uiso   1.00
N61    N     0.06207   0.99737   0.34176   0.00000  Uiso   1.00
C62    C     0.00037  -0.00233   0.43961   0.00000  Uiso   1.00
N63    N     0.06208   0.99850   0.47103   0.00000  Uiso   1.00
N64    N     0.06210   0.99894   0.53147   0.00000  Uiso   1.00
C65    C     0.00042  -0.00150   0.56270   0.00000  Uiso   1.00
N66    N    -0.06130  -0.00232   0.53128   0.00000  Uiso   1.00
N67    N    -0.06132  -0.00275   0.47084   0.00000  Uiso   1.00
C68    C     0.00042  -0.00114   0.62932   0.00000  Uiso   1.00
N69    N     0.93872  -0.00117   0.66055   0.00000  Uiso   1.00
N70    N     0.93872  -0.00108   0.72099   0.00000  Uiso   1.00
C71    C     0.00044  -0.00102   0.75236   0.00000  Uiso   1.00
N72    N     0.06215   0.99900   0.72121   0.00000  Uiso   1.00
N73    N     0.06215   0.99894   0.66077   0.00000  Uiso   1.00
loop_
_geom_bond_atom_site_label_1
_geom_bond_atom_site_label_2
_geom_bond_distance
_geom_bond_site_symmetry_2
_ccdc_geom_bond_type
C0     O4      1.284   .     A
C0     C59     1.465   .     S
C0     O5      1.279   1_455 A
Ho1    O4      2.187   .     S
Ho1    O6      2.187   .     S
Ho1    O17     2.202   .     S
Ho1    O5      2.177   1_455 S
Ho1    O7      2.155   1_544 S
Ho1    O10     2.202   1_545 S
Ho1    O15     2.160   1_455 S
C2     O12     1.284   .     A
C2     O13     1.279   1_655 A
C2     C71     1.465   1_665 S
Ho3    O11     2.202   .     S
Ho3    O12     2.187   .     S
Ho3    O14     2.187   .     S
Ho3    O7      2.160   1_655 S
Ho3    O13     2.177   1_655 S
Ho3    O15     2.155   1_566 S
Ho3    O16     2.202   1_565 S
O5     C0      1.279   1_655 A
O5     Ho1     2.177   1_655 S
O6     C8      1.230   1_554 D
O7     Ho1     2.155   1_566 S
O7     Ho3     2.160   1_455 S
O7     C8      1.399   1_565 S
C8     O6      1.230   1_556 D
C8     O7      1.399   1_545 S
C8     C41     1.464   1_545 S
C9     O14     1.230   1_554 D
C9     O15     1.399   1_565 S
C9     C53     1.464   1_554 S
O10    C19     1.301   .     A
O10    Ho1     2.202   1_565 S
O11    C19     1.301   1_656 A
O13    C2      1.279   1_455 A
O13    Ho3     2.177   1_455 S
O14    C9      1.230   1_556 D
O15    Ho1     2.160   1_655 S
O15    Ho3     2.155   1_544 S
O15    C9      1.399   1_545 S
O16    C18     1.301   .     A
O16    Ho3     2.202   1_545 S
O17    C18     1.301   1_454 A
C18    O17     1.301   1_656 A
C18    C35     1.469   1_556 S
C19    O11     1.301   1_454 A
C19    C23     1.469   1_455 S
C20    C26     1.469   .     S
C20    N21     1.358   1_554 A
C20    N25     1.358   1_655 A
N21    N22     1.332   .     A
N21    C20     1.358   1_556 A
N22    C23     1.358   1_556 A
C23    N22     1.358   1_554 A
C23    N24     1.358   1_655 A
C23    C19     1.469   1_655 S
N24    N25     1.332   .     A
N24    C23     1.358   1_455 A
N25    C20     1.358   1_455 A
C26    N27     1.358   .     A
C26    N31     1.358   1_554 A
N27    N28     1.332   .     A
N28    C29     1.358   .     A
C29    C32     1.469   .     S
C29    N30     1.358   1_554 A
N30    N31     1.332   .     A
N30    C29     1.358   1_556 A
N31    C26     1.358   1_556 A
C32    N33     1.358   1_554 A
C32    N37     1.358   1_655 A
N33    N34     1.332   .     A
N33    C32     1.358   1_556 A
N34    C35     1.358   1_556 A
C35    N34     1.358   1_554 A
C35    N36     1.358   1_655 A
C35    C18     1.469   1_554 S
N36    N37     1.332   .     A
N36    C35     1.358   1_455 A
N37    C32     1.358   1_455 A
C38    N39     1.358   .     A
C38    C44     1.469   .     S
C38    N43     1.358   1_566 A
N39    N40     1.332   .     A
N40    C41     1.357   .     A
C41    N42     1.357   1_566 A
C41    C8      1.464   1_565 S
N42    N43     1.332   .     A
N42    C41     1.357   1_544 A
N43    C38     1.358   1_544 A
C44    N49     1.358   .     A
C44    N45     1.358   1_566 A
N45    N46     1.332   .     A
N45    C44     1.358   1_544 A
N46    C47     1.358   1_544 A
C47    N48     1.358   .     A
C47    C50     1.469   .     S
C47    N46     1.358   1_566 A
N48    N49     1.332   .     A
C50    N51     1.358   .     A
C50    N55     1.358   1_566 A
N51    N52     1.332   .     A
N52    C53     1.357   .     A
C53    N54     1.357   1_566 A
C53    C9      1.464   1_556 S
N54    N55     1.332   .     A
N54    C53     1.357   1_544 A
N55    C50     1.358   1_544 A
C56    C62     1.469   .     S
C56    N57     1.358   1_455 A
C56    N61     1.358   1_545 A
N57    N58     1.333   .     A
N57    C56     1.358   1_655 A
N58    C59     1.357   1_655 A
C59    N58     1.357   1_455 A
C59    N60     1.357   1_545 A
N60    N61     1.332   .     A
N60    C59     1.357   1_565 A
N61    C56     1.358   1_565 A
C62    N67     1.358   .     A
C62    N63     1.358   1_545 A
N63    N64     1.332   .     A
N63    C62     1.358   1_565 A
N64    C65     1.358   1_565 A
C65    N66     1.358   .     A
C65    C68     1.469   .     S
C65    N64     1.358   1_545 A
N66    N67     1.332   .     A
C68    N69     1.358   1_455 A
C68    N73     1.358   1_545 A
N69    N70     1.332   .     A
N69    C68     1.358   1_655 A
N70    C71     1.357   1_655 A
C71    N70     1.357   1_455 A
C71    N72     1.357   1_545 A
C71    C2      1.465   1_445 S
N72    N73     1.332   .     A
N72    C71     1.357   1_565 A
N73    C68     1.358   1_565 A
