data_pcu+N394+E161
_audit_creation_date              2023-11-17
_audit_creation_method            'Materials Studio'
_symmetry_space_group_name_H-M    'P1'
_symmetry_Int_Tables_number       1
_symmetry_cell_setting            triclinic
loop_
_symmetry_equiv_pos_as_xyz
  x,y,z
_cell_length_a                    26.9737
_cell_length_b                    23.6891
_cell_length_c                    22.7856
_cell_angle_alpha                 106.1048
_cell_angle_beta                  89.8703
_cell_angle_gamma                 82.3571
loop_
_atom_site_label
_atom_site_type_symbol
_atom_site_fract_x
_atom_site_fract_y
_atom_site_fract_z
_atom_site_U_iso_or_equiv
_atom_site_adp_type
_atom_site_occupancy
Pr0    Pr    0.05580   0.99400  -0.00751   0.00000  Uiso   1.00
Pr1    Pr    0.93808   0.00142   1.01556   0.00000  Uiso   1.00
O2     O     0.94680   0.10106   1.03866   0.00000  Uiso   1.00
O3     O     0.03286   0.09605   0.02920   0.00000  Uiso   1.00
O4     O     0.12793   0.00566   0.94702   0.00000  Uiso   1.00
O5     O     0.13311   0.97617   0.02764   0.00000  Uiso   1.00
O6     O     1.00670   0.97946   0.06591   0.00000  Uiso   1.00
O7     O     0.04883   1.05192   0.09306   0.00000  Uiso   1.00
C8     C     0.97402  -0.02105   0.89659   0.00000  Uiso   1.00
C9     C     0.98760   0.12525   0.03930   0.00000  Uiso   1.00
C10    C     0.15620  -0.00940   0.98653   0.00000  Uiso   1.00
C11    C     0.83776   0.00331   0.02105   0.00000  Uiso   1.00
C12    C     0.00612   0.87042   0.96589   0.00000  Uiso   1.00
C13    C     0.02198   1.02386   0.11197   0.00000  Uiso   1.00
O14    O     0.04673   0.89439  -0.03574   0.00000  Uiso   1.00
O15    O     0.96129   0.89984   0.97966   0.00000  Uiso   1.00
O16    O     0.86608   0.98955   0.06113   0.00000  Uiso   1.00
O17    O     0.86073   0.01694   0.97938   0.00000  Uiso   1.00
O18    O    -0.01202   0.02024   0.94565   0.00000  Uiso   1.00
O19    O     0.94364  -0.04776   0.91123   0.00000  Uiso   1.00
H20    H     0.92964   0.18439   0.97502   0.00000  Uiso   1.00
C21    C     0.01139   0.80581   0.95652   0.00000  Uiso   1.00
C22    C     0.04766   0.77945  -0.01172   0.00000  Uiso   1.00
C23    C     0.04659   0.72152  -0.00818   0.00000  Uiso   1.00
C24    C     0.00969   0.68860  -0.03874   0.00000  Uiso   1.00
C25    C     0.97518   0.71365   0.92554   0.00000  Uiso   1.00
C26    C     0.97604   0.77238   0.92418   0.00000  Uiso   1.00
C27    C     0.08275   0.69682   0.03172   0.00000  Uiso   1.00
C28    C     0.93621   0.67999   0.88967   0.00000  Uiso   1.00
C29    C     0.96754   0.62962   0.01173   0.00000  Uiso   1.00
C30    C     0.96327   0.57620   0.02549   0.00000  Uiso   1.00
C31    C    -0.00165   0.52580  -0.00141   0.00000  Uiso   1.00
C32    C     0.03621   0.52919   0.95740   0.00000  Uiso   1.00
C33    C     0.03787   0.58305   0.94344   0.00000  Uiso   1.00
C34    C     0.92500   0.57196   0.06539   0.00000  Uiso   1.00
C35    C     0.92178   0.51858   0.07892   0.00000  Uiso   1.00
C36    C     0.95696   0.46825   0.05302   0.00000  Uiso   1.00
C37    C    -0.00461   0.47196   0.01275   0.00000  Uiso   1.00
C38    C     0.03056   0.42171   0.98605   0.00000  Uiso   1.00
C39    C     0.06867   0.42578   0.94575   0.00000  Uiso   1.00
C40    C     0.07140   0.47886   0.93140   0.00000  Uiso   1.00
C41    C     0.95395   0.41371   0.06518   0.00000  Uiso   1.00
C42    C     0.02640   0.36833   0.99991   0.00000  Uiso   1.00
C43    C    -0.01805   0.30808   0.04604   0.00000  Uiso   1.00
C44    C     0.04372   0.32229   0.13260   0.00000  Uiso   1.00
C45    C     0.01157   0.22580   0.08762   0.00000  Uiso   1.00
C46    C     0.92125   0.29206   0.95850   0.00000  Uiso   1.00
C47    C     0.95115   0.21306   1.00799   0.00000  Uiso   1.00
C48    C     0.95106   0.27176   1.00661   0.00000  Uiso   1.00
C49    C     0.01134   0.28521   0.08796   0.00000  Uiso   1.00
C50    C     0.98216   0.18952   0.04700   0.00000  Uiso   1.00
H51    H    -0.05897   0.27143   0.91310   0.00000  Uiso   1.00
N52    N     0.00457   0.63227  -0.02843   0.00000  Uiso   1.00
N53    N    -0.01199   0.36500   0.03791   0.00000  Uiso   1.00
H54    H     0.91608   0.34085   0.96698   0.00000  Uiso   1.00
H55    H     0.07467   0.80550   0.01422   0.00000  Uiso   1.00
H56    H     0.94810   0.79269   0.89943   0.00000  Uiso   1.00
H57    H     0.10634   0.73014   0.05702   0.00000  Uiso   1.00
H58    H     0.06151   0.68318   0.06610   0.00000  Uiso   1.00
H59    H     0.10812   0.65783   0.00361   0.00000  Uiso   1.00
H60    H     0.93596   0.63556   0.89686   0.00000  Uiso   1.00
H61    H     0.89835   0.70566   0.90328   0.00000  Uiso   1.00
H62    H    -0.05669   0.67388   0.84008   0.00000  Uiso   1.00
O63    O     0.07301   0.58623   0.90087   0.00000  Uiso   1.00
O64    O     0.93452   0.67956   0.03894   0.00000  Uiso   1.00
H65    H     0.89732   0.60989   0.08641   0.00000  Uiso   1.00
H66    H     0.10122   0.48052   0.90020   0.00000  Uiso   1.00
H67    H     0.89148   0.51671   0.10949   0.00000  Uiso   1.00
H68    H     0.08359   0.30149   0.12455   0.00000  Uiso   1.00
H69    H     0.04124   0.36820   0.12910   0.00000  Uiso   1.00
H70    H     0.03540   0.20752   0.11822   0.00000  Uiso   1.00
H71    H     0.09645   0.38785   0.92505   0.00000  Uiso   1.00
H72    H     0.88346   0.27771   0.95659   0.00000  Uiso   1.00
O73    O     0.06034   0.31890   0.97420   0.00000  Uiso   1.00
O74    O     0.91565   0.40867   0.10250   0.00000  Uiso   1.00
H75    H     1.03139   0.32461   0.17996   0.00000  Uiso   1.00
H76    H     0.77401   0.02587   0.93664   0.00000  Uiso   1.00
C77    C     0.21101  -0.00904  -0.01344   0.00000  Uiso   1.00
C78    C     0.23820   0.97976   0.03553   0.00000  Uiso   1.00
C79    C     0.29008   0.98105   0.03715   0.00000  Uiso   1.00
C80    C     0.31524  -0.00705  -0.01140   0.00000  Uiso   1.00
C81    C     0.28819   0.00394   0.93897   0.00000  Uiso   1.00
C82    C     0.23619   0.00300   0.93851   0.00000  Uiso   1.00
C83    C     0.31824   0.96896   0.09026   0.00000  Uiso   1.00
C84    C     0.31450   0.01669   0.88670   0.00000  Uiso   1.00
C85    C     0.40060   0.94330  -0.03487   0.00000  Uiso   1.00
C86    C     0.45271   0.94284  -0.03010   0.00000  Uiso   1.00
C87    C     0.47117  -0.00456   0.00129   0.00000  Uiso   1.00
C88    C     0.43759   0.04762   0.02632   0.00000  Uiso   1.00
C89    C     0.38593   0.04617   0.01975   0.00000  Uiso   1.00
C90    C     0.48655   0.89114   0.94468   0.00000  Uiso   1.00
C91    C     0.53809   0.89173   0.95069   0.00000  Uiso   1.00
C92    C     0.55688   0.94380  -0.01787   0.00000  Uiso   1.00
C93    C     0.52327  -0.00415   0.00751   0.00000  Uiso   1.00
C94    C     0.54163   0.04835   0.03914   0.00000  Uiso   1.00
C95    C     0.50780   0.10010   0.06429   0.00000  Uiso   1.00
C96    C     0.45632   0.09971   0.05775   0.00000  Uiso   1.00
C97    C     0.60860   0.94535   0.98831   0.00000  Uiso   1.00
C98    C     0.59363   0.04792   0.04416   0.00000  Uiso   1.00
C99    C     0.67895  -0.00094   0.01991   0.00000  Uiso   1.00
C100   C     0.68247   0.97163   0.12081   0.00000  Uiso   1.00
C101   C     0.75843   0.98905   0.06909   0.00000  Uiso   1.00
C102   C     0.67473   0.02624   0.91966   0.00000  Uiso   1.00
C103   C     0.75529   0.01528   0.97362   0.00000  Uiso   1.00
C104   C     0.70353   0.01314   0.97212   0.00000  Uiso   1.00
C105   C     0.70662   0.98706   0.06871   0.00000  Uiso   1.00
C106   C     0.78300   1.00298   0.02169   0.00000  Uiso   1.00
H107   H     0.64606   0.06590   0.93708   0.00000  Uiso   1.00
N108   N     0.36849  -0.00559  -0.00976   0.00000  Uiso   1.00
N109   N     0.62582   0.99710   0.01822   0.00000  Uiso   1.00
H110   H     0.65581  -0.01249   0.89633   0.00000  Uiso   1.00
H111   H     0.21890   0.97088   0.07312   0.00000  Uiso   1.00
H112   H     0.21515   0.01198   0.90091   0.00000  Uiso   1.00
H113   H     0.29314   0.95888   0.12380   0.00000  Uiso   1.00
H114   H     0.34782   0.93023   0.07374   0.00000  Uiso   1.00
H115   H     0.33570   0.00842   0.11438   0.00000  Uiso   1.00
H116   H     0.34468  -0.02048   0.86595   0.00000  Uiso   1.00
H117   H     0.28829   0.02177   0.85021   0.00000  Uiso   1.00
H118   H     0.33132   0.05832   0.90363   0.00000  Uiso   1.00
O119   O     0.35273   0.09673   0.04375   0.00000  Uiso   1.00
O120   O     0.38180   0.89222   0.93595   0.00000  Uiso   1.00
H121   H     0.47350   0.85010   0.92016   0.00000  Uiso   1.00
H122   H     0.43131   0.14046   0.07737   0.00000  Uiso   1.00
H123   H     0.56311   0.85106   0.93052   0.00000  Uiso   1.00
H124   H     0.68880   1.00423   0.16483   0.00000  Uiso   1.00
H125   H     0.64169   0.97100   0.11626   0.00000  Uiso   1.00
H126   H     0.77960   0.97961   0.10643   0.00000  Uiso   1.00
H127   H     0.52096   0.14099   0.08901   0.00000  Uiso   1.00
H128   H     0.69967   0.03525   0.88523   0.00000  Uiso   1.00
O129   O     0.61222   0.09872   0.07453   0.00000  Uiso   1.00
O130   O     0.64198   0.89522   0.96346   0.00000  Uiso   1.00
H131   H     0.69982   0.92666   0.12193   0.00000  Uiso   1.00
H132   H     0.91633   0.02949   0.82715   0.00000  Uiso   1.00
C133   C     0.02254   1.02401   0.17569   0.00000  Uiso   1.00
C134   C     0.06983   1.01608   0.20008   0.00000  Uiso   1.00
C135   C     0.07373   1.00956   0.25928   0.00000  Uiso   1.00
C136   C     0.02947   1.01359   0.29482   0.00000  Uiso   1.00
C137   C     0.98188   0.02407   0.27055   0.00000  Uiso   1.00
C138   C     0.97873   0.02778   0.21021   0.00000  Uiso   1.00
C139   C     0.12466   0.99568   0.28310   0.00000  Uiso   1.00
C140   C     0.93459   0.03209   0.30895   0.00000  Uiso   1.00
C141   C     0.04236   0.05272   0.40324   0.00000  Uiso   1.00
C142   C     0.04259   0.04753   0.46327   0.00000  Uiso   1.00
C143   C     0.03221   0.99429   0.47345   0.00000  Uiso   1.00
C144   C     1.02356   0.94646   0.42357   0.00000  Uiso   1.00
C145   C     1.02463   0.95334   0.36429   0.00000  Uiso   1.00
C146   C     0.05184   0.09459   0.51321   0.00000  Uiso   1.00
C147   C     0.04966   0.08928   0.57268   0.00000  Uiso   1.00
C148   C     0.03777   0.03686   0.58339   0.00000  Uiso   1.00
C149   C     0.02937   0.98912   0.53361   0.00000  Uiso   1.00
C150   C     1.01712   0.93658   0.54399   0.00000  Uiso   1.00
C151   C     1.00950   0.88883   0.49389   0.00000  Uiso   1.00
C152   C     1.01301   0.89353   0.43422   0.00000  Uiso   1.00
C153   C     0.03296   0.03152   0.64302   0.00000  Uiso   1.00
C154   C     0.01179   0.93359   0.60442   0.00000  Uiso   1.00
C155   C     0.00823   0.97969   0.71402   0.00000  Uiso   1.00
C156   C     0.09395   0.92147   0.71528   0.00000  Uiso   1.00
C157   C     0.03213   0.94900   0.80495   0.00000  Uiso   1.00
C158   C     0.92308   0.03878   0.71107   0.00000  Uiso   1.00
C159   C     0.95124   0.00651   0.80323   0.00000  Uiso   1.00
C160   C     0.96171   0.00783   0.74338   0.00000  Uiso   1.00
C161   C     0.04363   0.95019   0.74507   0.00000  Uiso   1.00
C162   C    -0.01408  -0.02341   0.83339   0.00000  Uiso   1.00
H163   H     0.91387   0.00743   0.66772   0.00000  Uiso   1.00
N164   N     0.03266   1.00630   0.35549   0.00000  Uiso   1.00
N165   N     0.01904   0.98102   0.65245   0.00000  Uiso   1.00
H166   H     0.93751   0.07694   0.70094   0.00000  Uiso   1.00
H167   H     0.10310   1.01287   0.17059   0.00000  Uiso   1.00
H168   H     0.94250   0.03414   0.19025   0.00000  Uiso   1.00
H169   H     0.15517   0.98909   0.24786   0.00000  Uiso   1.00
H170   H     0.13141   1.03261   0.32333   0.00000  Uiso   1.00
H171   H     0.12637   0.95401   0.29680   0.00000  Uiso   1.00
H172   H     0.93558   0.06967   0.35094   0.00000  Uiso   1.00
H173   H     0.90085   0.04235   0.28384   0.00000  Uiso   1.00
H174   H     0.93097  -0.00905   0.32212   0.00000  Uiso   1.00
O175   O     1.01577   0.90746   0.31519   0.00000  Uiso   1.00
O176   O     0.05015   0.10518   0.39276   0.00000  Uiso   1.00
H177   H     0.06031   0.13594   0.50655   0.00000  Uiso   1.00
H178   H     1.00643   0.85585   0.39675   0.00000  Uiso   1.00
H179   H     0.05644   0.12692   0.61020   0.00000  Uiso   1.00
H180   H     0.11716   0.89905   0.74483   0.00000  Uiso   1.00
H181   H     0.08966   0.88786   0.67137   0.00000  Uiso   1.00
H182   H     0.05934   0.92770   0.82994   0.00000  Uiso   1.00
H183   H     1.00009   0.84781   0.50045   0.00000  Uiso   1.00
H184   H     0.88774   0.05599   0.73951   0.00000  Uiso   1.00
O185   O     0.99785   0.88363   0.61534   0.00000  Uiso   1.00
O186   O     0.04062   0.07791   0.69213   0.00000  Uiso   1.00
H187   H     0.11465   0.95616   0.70639   0.00000  Uiso   1.00
loop_
_geom_bond_atom_site_label_1
_geom_bond_atom_site_label_2
_geom_bond_distance
_geom_bond_site_symmetry_2
_ccdc_geom_bond_type
Pr0    O5      2.265   .     S
Pr0    O7      2.314   .     S
Pr0    O14     2.314   .     S
Pr0    O3      2.325   1_565 S
Pr0    O4      2.286   1_564 S
Pr0    O6      2.259   1_455 S
Pr0    O18     2.224   1_564 S
Pr1    O2      2.316   .     S
Pr1    O17     2.267   .     S
Pr1    O19     2.334   .     S
Pr1    O6      2.258   1_546 S
Pr1    O15     2.314   1_545 S
Pr1    O16     2.286   1_546 S
Pr1    O18     2.256   1_655 S
O2     C9      1.305   1_556 D
O3     Pr0     2.325   1_545 S
O3     C9      1.307   1_455 S
O4     C10     1.276   .     A
O4     Pr0     2.286   1_546 S
O5     C10     1.270   1_564 A
O6     Pr0     2.259   1_655 S
O6     Pr1     2.258   1_564 S
O6     C13     1.372   1_655 S
O7     C13     1.199   .     D
C8     O19     1.199   .     D
C8     O18     1.357   1_655 S
C8     C162    1.459   1_655 S
C9     C50     1.470   .     S
C9     O2      1.305   1_554 D
C9     O3      1.307   1_655 S
C10    O5      1.270   1_546 A
C10    C77     1.480   1_556 S
C11    O16     1.275   1_545 A
C11    O17     1.269   1_554 A
C11    C106    1.478   1_545 S
C12    C21     1.473   .     S
C12    O14     1.304   1_556 A
C12    O15     1.303   1_455 A
C13    C133    1.451   .     S
C13    O6      1.372   1_455 S
O14    C12     1.304   1_554 A
O15    Pr1     2.314   1_565 S
O15    C12     1.303   1_655 A
O16    Pr1     2.286   1_564 S
O16    C11     1.275   1_565 A
O17    C11     1.269   1_556 A
O18    Pr0     2.224   1_546 S
O18    Pr1     2.256   1_455 S
O18    C8      1.357   1_455 S
H20    C47     1.089   .     S
C21    C22     1.401   1_556 A
C21    C26     1.400   1_455 A
C22    C23     1.401   .     A
C22    H55     1.086   .     S
C22    C21     1.401   1_554 A
C23    C24     1.411   .     A
C23    C27     1.506   .     S
C24    N52     1.441   .     S
C24    C25     1.416   1_454 A
C25    C26     1.404   .     A
C25    C28     1.508   .     S
C25    C24     1.416   1_656 A
C26    H56     1.083   .     S
C26    C21     1.400   1_655 A
C27    H57     1.115   .     S
C27    H58     1.111   .     S
C27    H59     1.111   .     S
C28    H60     1.110   .     S
C28    H61     1.113   .     S
C28    H62     1.111   1_655 S
C29    C30     1.404   .     A
C29    O64     1.374   .     S
C29    N52     1.372   1_655 A
C30    C34     1.406   .     A
C30    C31     1.410   1_655 A
C31    C37     1.412   .     A
C31    C30     1.410   1_455 A
C31    C32     1.411   1_554 A
C32    C33     1.404   .     A
C32    C40     1.406   .     A
C32    C31     1.411   1_556 A
C33    O63     1.379   .     S
C33    N52     1.371   1_556 A
C34    C35     1.395   .     A
C34    H65     1.084   .     S
C35    C36     1.406   .     A
C35    H67     1.086   .     S
C36    C41     1.407   .     A
C36    C37     1.410   1_655 A
C37    C36     1.410   1_455 A
C37    C38     1.408   1_554 A
C38    C39     1.407   .     A
C38    C42     1.404   .     A
C38    C37     1.408   1_556 A
C39    C40     1.395   .     A
C39    H71     1.084   .     S
C40    H66     1.084   .     S
C41    O74     1.375   .     S
C41    N53     1.371   1_655 A
C42    O73     1.373   .     S
C42    N53     1.373   1_556 A
C43    C49     1.418   .     A
C43    N53     1.441   .     S
C43    C48     1.416   1_454 A
C44    C49     1.511   .     S
C44    H68     1.114   .     S
C44    H69     1.106   .     S
C44    H75     1.113   1_455 S
C45    C49     1.405   .     A
C45    H70     1.087   .     S
C45    C50     1.403   1_455 A
C46    C48     1.508   .     S
C46    H54     1.107   .     S
C46    H72     1.114   .     S
C46    H51     1.114   1_655 S
C47    C48     1.399   .     A
C47    C50     1.398   1_556 A
C48    C43     1.416   1_656 A
C50    C45     1.403   1_655 A
C50    C47     1.398   1_554 A
H51    C46     1.114   1_455 S
N52    C29     1.372   1_455 A
N52    C33     1.371   1_554 A
N53    C41     1.371   1_455 A
N53    C42     1.373   1_554 A
H62    C28     1.111   1_455 S
H75    C44     1.113   1_655 S
H76    C103    1.085   .     S
C77    C78     1.403   1_545 A
C77    C82     1.401   1_554 A
C77    C10     1.480   1_554 S
C78    C79     1.404   .     A
C78    H111    1.084   .     S
C78    C77     1.403   1_565 A
C79    C83     1.504   .     S
C79    C80     1.409   1_565 A
C80    N108    1.442   .     S
C80    C79     1.409   1_545 A
C80    C81     1.413   1_554 A
C81    C82     1.406   .     A
C81    C84     1.505   .     S
C81    C80     1.413   1_556 A
C82    H112    1.083   .     S
C82    C77     1.401   1_556 A
C83    H113    1.114   .     S
C83    H114    1.110   .     S
C83    H115    1.109   1_565 S
C84    H116    1.113   .     S
C84    H117    1.114   .     S
C84    H118    1.112   .     S
C85    C86     1.409   .     A
C85    N108    1.370   1_565 A
C85    O120    1.372   1_554 S
C86    C87     1.409   1_565 A
C86    C90     1.405   1_554 A
C87    C88     1.408   .     A
C87    C93     1.414   .     A
C87    C86     1.409   1_545 A
C88    C89     1.406   .     A
C88    C96     1.403   .     A
C89    N108    1.369   .     A
C89    O119    1.373   .     S
C90    C91     1.399   .     A
C90    H121    1.083   .     S
C90    C86     1.405   1_556 A
C91    H123    1.084   .     S
C91    C92     1.403   1_556 A
C92    C91     1.403   1_554 A
C92    C93     1.408   1_565 A
C92    C97     1.407   1_554 A
C93    C94     1.407   .     A
C93    C92     1.408   1_545 A
C94    C95     1.405   .     A
C94    C98     1.407   .     A
C95    C96     1.398   .     A
C95    H127    1.082   .     S
C96    H122    1.083   .     S
C97    O130    1.372   .     S
C97    C92     1.407   1_556 A
C97    N109    1.369   1_556 A
C98    O129    1.371   .     S
C98    N109    1.370   1_545 A
C99    C104    1.412   1_554 A
C99    C105    1.413   1_545 A
C99    N109    1.440   1_545 S
C100   C105    1.506   .     S
C100   H124    1.113   .     S
C100   H125    1.107   .     S
C100   H131    1.112   .     S
C101   C105    1.405   .     A
C101   C106    1.403   .     A
C101   H126    1.084   .     S
C102   C104    1.508   .     S
C102   H107    1.112   .     S
C102   H110    1.114   .     S
C102   H128    1.115   .     S
C103   C104    1.404   .     A
C103   C106    1.402   1_546 A
C104   C99     1.412   1_556 A
C105   C99     1.413   1_565 A
C106   C103    1.402   1_564 A
C106   C11     1.478   1_565 S
N108   C85     1.370   1_545 A
N109   C97     1.369   1_554 A
N109   C98     1.370   1_565 A
N109   C99     1.440   1_565 S
H115   C83     1.109   1_545 S
O120   C85     1.372   1_556 S
H132   C159    1.085   .     S
C133   C134    1.403   .     A
C133   C138    1.397   1_465 A
C134   C135    1.402   .     A
C134   H167    1.102   .     S
C135   C136    1.419   .     A
C135   C139    1.507   .     S
C136   N164    1.441   .     S
C136   C137    1.418   1_465 A
C137   C138    1.404   .     A
C137   C140    1.506   .     S
C137   C136    1.418   1_645 A
C138   H168    1.089   .     S
C138   C133    1.397   1_645 A
C139   H169    1.114   .     S
C139   H170    1.112   .     S
C139   H171    1.110   .     S
C140   H172    1.115   .     S
C140   H173    1.112   .     S
C140   H174    1.112   .     S
C141   C142    1.407   .     A
C141   O176    1.371   .     S
C141   N164    1.369   1_545 A
C142   C146    1.404   .     A
C142   C143    1.407   1_545 A
C143   C149    1.413   .     A
C143   C142    1.407   1_565 A
C143   C144    1.410   1_455 A
C144   C145    1.405   .     A
C144   C152    1.406   .     A
C144   C143    1.410   1_655 A
C145   O175    1.373   .     S
C145   N164    1.368   1_655 A
C146   C147    1.397   .     A
C146   H177    1.085   .     S
C147   C148    1.406   .     A
C147   H179    1.086   .     S
C148   C153    1.406   .     A
C148   C149    1.405   1_545 A
C149   C148    1.405   1_565 A
C149   C150    1.410   1_455 A
C150   C151    1.404   .     A
C150   C149    1.410   1_655 A
C150   C154    1.406   1_655 A
C151   C152    1.399   .     A
C151   H183    1.085   .     S
C152   H178    1.085   .     S
C153   O186    1.372   .     S
C153   N165    1.371   1_545 A
C154   N165    1.370   .     A
C154   C150    1.406   1_455 A
C154   O185    1.373   1_455 S
C155   C161    1.415   .     A
C155   N165    1.442   .     S
C155   C160    1.412   1_465 A
C156   C161    1.503   .     S
C156   H180    1.113   .     S
C156   H181    1.110   .     S
C156   H187    1.114   .     S
C157   C161    1.407   .     A
C157   H182    1.086   .     S
C157   C162    1.395   1_565 A
C158   C160    1.505   .     S
C158   H163    1.110   .     S
C158   H166    1.109   .     S
C158   H184    1.114   .     S
C159   C160    1.402   .     A
C159   C162    1.395   1_655 A
C160   C155    1.412   1_645 A
C162   C157    1.395   1_545 A
C162   C159    1.395   1_455 A
C162   C8      1.459   1_455 S
N164   C141    1.369   1_565 A
N164   C145    1.368   1_455 A
N165   C153    1.371   1_565 A
O185   C154    1.373   1_655 S
