data_pcu+N106+E183
_audit_creation_date              2023-11-17
_audit_creation_method            'Materials Studio'
_symmetry_space_group_name_H-M    'P1'
_symmetry_Int_Tables_number       1
_symmetry_cell_setting            triclinic
loop_
_symmetry_equiv_pos_as_xyz
  x,y,z
_cell_length_a                    16.1544
_cell_length_b                    13.2178
_cell_length_c                    11.9090
_cell_angle_alpha                 76.2296
_cell_angle_beta                  66.6507
_cell_angle_gamma                 86.1637
loop_
_atom_site_label
_atom_site_type_symbol
_atom_site_fract_x
_atom_site_fract_y
_atom_site_fract_z
_atom_site_U_iso_or_equiv
_atom_site_adp_type
_atom_site_occupancy
Y0     Y     0.89533   0.00557   0.02376   0.00000  Uiso   1.00
Y1     Y     0.10488   0.99464   0.97643   0.00000  Uiso   1.00
O2     O     0.93394   0.17528  -0.02064   0.00000  Uiso   1.00
O3     O     1.02614   0.06321   0.85863   0.00000  Uiso   1.00
C4     C     0.26889   0.99686   0.98530   0.00000  Uiso   1.00
O5     O     0.12814   0.95528   0.79094   0.00000  Uiso   1.00
O6     O     0.74529  -0.03061   0.11402   0.00000  Uiso   1.00
O7     O     0.80215   0.03809   0.92065   0.00000  Uiso   1.00
O8     O     0.06366   0.15609   1.01007   0.00000  Uiso   1.00
O9     O    -0.02593   0.93700   0.14156   0.00000  Uiso   1.00
O10    O     0.87207   0.04493   0.20925   0.00000  Uiso   1.00
O11    O     0.93655   0.84413  -0.00989   0.00000  Uiso   1.00
C12    C    -0.00103   0.21217   0.99532   0.00000  Uiso   1.00
O13    O     0.06626   0.82493   1.02082   0.00000  Uiso   1.00
C14    C     0.06725   1.00459   0.77149   0.00000  Uiso   1.00
O15    O     0.25488   1.03096   0.88625   0.00000  Uiso   1.00
O16    O     0.19806   0.96196   0.07952   0.00000  Uiso   1.00
C17    C     0.73130   0.00333   0.01493   0.00000  Uiso   1.00
C18    C     1.00125   0.78805   0.00485   0.00000  Uiso   1.00
C19    C     0.93296  -0.00438   0.22870   0.00000  Uiso   1.00
C20    C     1.00055   0.67702   0.00374   0.00000  Uiso   1.00
C21    C     0.03842   0.49395   1.01117   0.00000  Uiso   1.00
C22    C     0.96184   0.50630  -0.01111   0.00000  Uiso   1.00
S23    S     0.08375   0.37456   1.02226   0.00000  Uiso   1.00
S24    S     0.91583   0.40164  -0.02655   0.00000  Uiso   1.00
S25    S     0.08440   0.59859   1.02668   0.00000  Uiso   1.00
S26    S     0.91646   0.62566  -0.02211   0.00000  Uiso   1.00
C27    C    -0.00033   0.32320   0.99640   0.00000  Uiso   1.00
C28    C     0.35792   0.99811   0.99081   0.00000  Uiso   1.00
C29    C     0.48136  -0.02119   0.06284   0.00000  Uiso   1.00
C30    C     0.51883   1.02139   0.93741   0.00000  Uiso   1.00
S31    S     0.54923  -0.04537   0.14349   0.00000  Uiso   1.00
S32    S     0.63135   1.04799   0.86855   0.00000  Uiso   1.00
S33    S     0.36883  -0.04780   0.13169   0.00000  Uiso   1.00
S34    S     0.45095   1.04558   0.85676   0.00000  Uiso   1.00
C35    C     0.64226   0.00209   0.00943   0.00000  Uiso   1.00
C36    C     0.95754  -0.00372   0.33450   0.00000  Uiso   1.00
C37    C     0.03054   0.96280   0.48355   0.00000  Uiso   1.00
C38    C     0.96961   0.03732   0.51674   0.00000  Uiso   1.00
S39    S     0.09410   0.92102   0.56859   0.00000  Uiso   1.00
S40    S     0.96064   0.08443   0.64125   0.00000  Uiso   1.00
S41    S     0.03956   0.91575   0.35897   0.00000  Uiso   1.00
S42    S     0.90605   0.07911   0.43169   0.00000  Uiso   1.00
C43    C     0.04266   1.00390   0.66571   0.00000  Uiso   1.00
loop_
_geom_bond_atom_site_label_1
_geom_bond_atom_site_label_2
_geom_bond_distance
_geom_bond_site_symmetry_2
_ccdc_geom_bond_type
Y0     O2      2.250   .     S
Y0     O6      2.259   .     S
Y0     O10     2.270   .     S
Y0     O3      2.263   1_554 S
Y0     O7      2.255   1_554 S
Y0     O9      2.250   1_645 S
Y0     O11     2.272   1_545 S
Y1     O5      2.270   .     S
Y1     O13     2.250   .     S
Y1     O15     2.259   .     S
Y1     O3      2.250   1_465 S
Y1     O8      2.272   1_565 S
Y1     O9      2.263   1_556 S
Y1     O16     2.255   1_556 S
O2     C12     1.284   1_654 A
O3     Y0      2.263   1_556 S
O3     Y1      2.250   1_645 S
O3     C14     1.373   1_645 S
C4     O15     1.261   .     A
C4     C28     1.467   .     S
C4     O16     1.260   1_556 A
O5     C14     1.212   .     D
O6     C17     1.261   .     A
O7     Y0      2.255   1_556 S
O7     C17     1.260   1_556 A
O8     C12     1.285   .     A
O8     Y1      2.272   1_545 S
O9     Y0      2.250   1_465 S
O9     Y1      2.263   1_554 S
O9     C19     1.373   1_465 S
O10    C19     1.212   .     D
O11    C18     1.285   .     A
O11    Y0      2.272   1_565 S
C12    C27     1.472   .     S
C12    O2      1.284   1_456 A
O13    C18     1.284   1_456 A
C14    C43     1.465   .     S
C14    O3      1.373   1_465 S
O16    Y1      2.255   1_554 S
O16    C4      1.260   1_554 A
C17    C35     1.467   .     S
C17    O7      1.260   1_554 A
C18    C20     1.472   .     S
C18    O13     1.284   1_654 A
C19    C36     1.465   .     S
C19    O9      1.373   1_645 S
C20    S26     1.719   .     A
C20    S25     1.719   1_654 A
C21    S23     1.693   .     A
C21    S25     1.693   .     A
C21    C22     1.356   1_456 A
C22    S24     1.693   .     A
C22    S26     1.693   .     A
C22    C21     1.356   1_654 A
S23    C27     1.719   .     A
S24    C27     1.719   1_654 A
S25    C20     1.719   1_456 A
C27    S24     1.719   1_456 A
C28    S34     1.717   .     A
C28    S33     1.717   1_566 A
C29    S31     1.694   .     A
C29    S33     1.693   .     A
C29    C30     1.358   1_544 A
C30    S32     1.693   .     A
C30    S34     1.694   .     A
C30    C29     1.358   1_566 A
S31    C35     1.717   .     A
S32    C35     1.717   1_566 A
S33    C28     1.717   1_544 A
C35    S32     1.717   1_544 A
C36    S42     1.717   .     A
C36    S41     1.716   1_645 A
C37    S39     1.693   .     A
C37    S41     1.693   .     A
C37    C38     1.357   1_465 A
C38    S40     1.692   .     A
C38    S42     1.693   .     A
C38    C37     1.357   1_645 A
S39    C43     1.717   .     A
S40    C43     1.716   1_645 A
S41    C36     1.716   1_465 A
C43    S40     1.716   1_465 A
