data_pcu+N173+E28
_audit_creation_date              2023-11-17
_audit_creation_method            'Materials Studio'
_symmetry_space_group_name_H-M    'P1'
_symmetry_Int_Tables_number       1
_symmetry_cell_setting            triclinic
loop_
_symmetry_equiv_pos_as_xyz
  x,y,z
_cell_length_a                    17.5584
_cell_length_b                    21.8731
_cell_length_c                    19.5821
_cell_angle_alpha                 114.5540
_cell_angle_beta                  75.3295
_cell_angle_gamma                 42.1680
loop_
_atom_site_label
_atom_site_type_symbol
_atom_site_fract_x
_atom_site_fract_y
_atom_site_fract_z
_atom_site_U_iso_or_equiv
_atom_site_adp_type
_atom_site_occupancy
Gd0    Gd    0.31318   0.67309   0.77794   0.00000  Uiso   1.00
Gd1    Gd    0.72079   0.30748   0.20996   0.00000  Uiso   1.00
O2     O     0.45657   0.43163   0.30386   0.00000  Uiso   1.00
O3     O     0.87020   1.06643   1.06851   0.00000  Uiso   1.00
O4     O     1.25059   0.74561   0.71547   0.00000  Uiso   1.00
O5     O    -0.06523   0.09288   0.95957   0.00000  Uiso   1.00
O6     O     0.31584   0.61280   0.84646   0.00000  Uiso   1.00
O7     O     1.18604   0.67053   0.80955   0.00000  Uiso   1.00
O8     O     0.50668   0.61546   0.72637   0.00000  Uiso   1.00
C9     C     0.23315   0.62606   0.84223   0.00000  Uiso   1.00
O10    O     0.16047  -0.05667  -0.10222   0.00000  Uiso   1.00
O11    O     0.23511   0.75401  -0.05551   0.00000  Uiso   1.00
C12    C     1.08144  -0.07077   0.81367   0.00000  Uiso   1.00
O13    O     0.91867   0.10284   0.17101   0.00000  Uiso   1.00
O14    O     0.57321   0.50095   1.25470   0.00000  Uiso   1.00
O15    O    -0.15046   0.30874   0.18334   0.00000  Uiso   1.00
C16    C     0.63607   0.23809   0.17839   0.00000  Uiso   1.00
C17    C     0.71219   0.43599   0.21904   0.00000  Uiso   1.00
C18    C     0.07797   0.93002   0.08880   0.00000  Uiso   1.00
C19    C     0.38012   0.77098   0.80502   0.00000  Uiso   1.00
C20    C     0.08851   0.55921   0.95111   0.00000  Uiso   1.00
C21    C     0.19208   0.53093  -0.05045   0.00000  Uiso   1.00
C22    C     0.24359   0.54880  -0.08871   0.00000  Uiso   1.00
C23    C     0.19279   0.59511   0.87382   0.00000  Uiso   1.00
C24    C     0.10247   0.61176   0.86653   0.00000  Uiso   1.00
C25    C     0.04951   0.59524   0.90562   0.00000  Uiso   1.00
C26    C     0.01763   0.55467   1.00222   0.00000  Uiso   1.00
N27    N    -0.13737   0.63267   1.04276   0.00000  Uiso   1.00
N28    N    -0.20602   0.63305   1.09201   0.00000  Uiso   1.00
C29    C    -0.12427   0.55694   1.10409   0.00000  Uiso   1.00
N30    N     0.03073   0.47899   0.06362   0.00000  Uiso   1.00
N31    N     0.09873   0.47926   0.01485   0.00000  Uiso   1.00
C32    C    -0.19108   0.54831   1.15163   0.00000  Uiso   1.00
C33    C    -0.10848   0.47154   0.16577   0.00000  Uiso   1.00
C34    C    -0.15285   0.44646   0.19694   0.00000  Uiso   1.00
C35    C    -0.27715   0.49445   1.21216   0.00000  Uiso   1.00
C36    C    -0.36882   0.57909   1.20464   0.00000  Uiso   1.00
C37    C    -0.32843   0.60774   1.17623   0.00000  Uiso   1.00
H38    H     0.22840   0.49949  -0.01869   0.00000  Uiso   1.00
H39    H     1.32268   0.52660  -0.08869   0.00000  Uiso   1.00
H40    H     0.07073   0.63924   0.83175   0.00000  Uiso   1.00
H41    H    -0.02293   0.61150   0.90071   0.00000  Uiso   1.00
H42    H    -0.00528   0.42696   0.14979   0.00000  Uiso   1.00
H43    H     0.91734   0.38300   0.20398   0.00000  Uiso   1.00
H44    H    -0.46341   0.61566   1.21462   0.00000  Uiso   1.00
H45    H    -0.39497   0.66743   1.16628   0.00000  Uiso   1.00
C46    C     0.56212  -0.17645  -0.15209   0.00000  Uiso   1.00
C47    C     0.57363  -0.23835  -0.13521   0.00000  Uiso   1.00
C48    C     0.53231  -0.27111  -0.16129   0.00000  Uiso   1.00
C49    C     0.47550  -0.23962   0.79767   0.00000  Uiso   1.00
C50    C     0.47783  -0.18993   0.77145   0.00000  Uiso   1.00
C51    C     0.52434  -0.16161   0.79400   0.00000  Uiso   1.00
C52    C     0.56674  -0.10909  -0.09948   0.00000  Uiso   1.00
N53    N     0.55141  -0.04577   0.88710   0.00000  Uiso   1.00
N54    N     0.54034   0.02719   0.94375   0.00000  Uiso   1.00
C55    C     0.54122   0.04229   0.01804   0.00000  Uiso   1.00
N56    N     0.55679  -0.02123   0.03130   0.00000  Uiso   1.00
N57    N     0.56909  -0.09516  -0.02609   0.00000  Uiso   1.00
C58    C     0.53657   0.11715   0.07654   0.00000  Uiso   1.00
C59    C     0.51675   0.14931   0.16586   0.00000  Uiso   1.00
C60    C     0.54248   0.19467   0.20316   0.00000  Uiso   1.00
C61    C     0.58492   0.21145   1.15385   0.00000  Uiso   1.00
C62    C     0.58843   0.19377   1.07495   0.00000  Uiso   1.00
C63    C     0.56549   0.14602   1.03581   0.00000  Uiso   1.00
H64    H     0.60392  -0.25264  -0.09496   0.00000  Uiso   1.00
H65    H     0.52800  -0.30680  -0.13847   0.00000  Uiso   1.00
H66    H     0.43543  -0.16610   0.73889   0.00000  Uiso   1.00
H67    H     0.51797  -0.11744   0.77733   0.00000  Uiso   1.00
H68    H     0.48817   0.13371   0.20301   0.00000  Uiso   1.00
H69    H     0.53502   0.21182   0.26700   0.00000  Uiso   1.00
H70    H     0.61360   0.21289   1.04090   0.00000  Uiso   1.00
H71    H     0.57826   0.12522   0.96903   0.00000  Uiso   1.00
C72    C     0.02935  -0.02176   0.34181   0.00000  Uiso   1.00
C73    C     0.93102   0.11325   0.38727   0.00000  Uiso   1.00
C74    C     0.94938   0.09611   0.30381   0.00000  Uiso   1.00
C75    C     1.07156  -0.06012   0.17043   0.00000  Uiso   1.00
C76    C     0.18386   0.79520   0.11775   0.00000  Uiso   1.00
C77    C     0.16166   0.81498   0.20292   0.00000  Uiso   1.00
C78    C    -0.00484   0.00574   0.43751   0.00000  Uiso   1.00
N79    N     0.04296   0.90904   0.41727   0.00000  Uiso   1.00
N80    N     0.01931   0.92731   0.49872   0.00000  Uiso   1.00
C81    C    -0.05593   0.04521   0.60579   0.00000  Uiso   1.00
N82    N    -0.10685   0.14453   0.62797   0.00000  Uiso   1.00
N83    N    -0.08350   0.12648   0.54640   0.00000  Uiso   1.00
C84    C    -0.05116   0.04056   0.67827   0.00000  Uiso   1.00
C85    C     0.90797   0.13317   0.76885   0.00000  Uiso   1.00
C86    C     0.95145   0.09713   0.81307   0.00000  Uiso   1.00
C87    C     0.04574  -0.03911   0.76162   0.00000  Uiso   1.00
C88    C     0.08066   0.87314   0.67482   0.00000  Uiso   1.00
C89    C     0.02414   0.91922   0.63921   0.00000  Uiso   1.00
H90    H     0.83595   0.23484   0.48948   0.00000  Uiso   1.00
H91    H     0.86710   0.20574   0.34421   0.00000  Uiso   1.00
H92    H     0.28529   0.66891   0.01265   0.00000  Uiso   1.00
H93    H     0.24613   0.70356   0.16089   0.00000  Uiso   1.00
H94    H     0.84706   0.22976   0.80276   0.00000  Uiso   1.00
H95    H     0.91518   0.17281   0.88501   0.00000  Uiso   1.00
H96    H     0.14383   0.77473   0.63931   0.00000  Uiso   1.00
H97    H     0.05214   0.84968   0.57285   0.00000  Uiso   1.00
loop_
_geom_bond_atom_site_label_1
_geom_bond_atom_site_label_2
_geom_bond_distance
_geom_bond_site_symmetry_2
_ccdc_geom_bond_type
Gd0    O6      2.225   .     S
Gd0    O8      2.238   .     S
Gd0    O3      2.143   1_455 S
Gd0    O4      2.220   1_455 S
Gd0    O7      2.210   1_455 S
Gd0    O11     2.234   1_556 S
Gd1    O2      2.266   .     S
Gd1    O13     2.336   .     S
Gd1    O5      2.364   1_654 S
Gd1    O10     2.211   1_655 S
Gd1    O14     2.214   1_554 S
Gd1    O15     2.211   1_655 S
O2     C16     1.244   .     A
O3     Gd0     2.143   1_655 S
O3     C16     1.246   1_566 A
O4     Gd0     2.220   1_655 S
O4     C12     1.287   1_565 A
O5     Gd1     2.364   1_456 S
O5     C12     1.310   1_455 A
O6     C9      1.287   .     A
O7     Gd0     2.210   1_655 S
O7     C9      1.278   1_655 A
O8     C19     1.260   .     A
C9     C23     1.477   .     S
C9     O7      1.278   1_455 A
O10    Gd1     2.211   1_455 S
O10    C19     1.262   1_544 A
O11    C18     1.297   .     A
O11    Gd0     2.234   1_554 S
C12    O4      1.287   1_545 A
C12    O5      1.310   1_655 A
C12    C87     1.476   1_655 S
O13    C18     1.301   1_645 A
O14    Gd1     2.214   1_556 S
O14    C17     1.278   1_556 A
O15    Gd1     2.211   1_455 S
O15    C17     1.277   1_455 A
C16    O3      1.246   1_544 A
C16    C61     1.462   1_554 S
C17    O14     1.278   1_554 A
C17    O15     1.277   1_655 A
C17    C35     1.474   1_654 S
C18    O13     1.301   1_465 A
C18    C75     1.483   1_465 S
C19    O10     1.262   1_566 A
C19    C49     1.468   1_565 S
C20    C25     1.406   .     A
C20    C26     1.482   .     S
C20    C21     1.407   1_556 A
C21    C22     1.399   .     A
C21    H38     1.083   .     S
C21    C20     1.407   1_554 A
C22    C23     1.403   1_554 A
C22    H39     1.080   1_455 S
C23    C24     1.404   .     A
C23    C22     1.403   1_556 A
C24    C25     1.396   .     A
C24    H40     1.083   .     S
C25    H41     1.083   .     S
C26    N27     1.358   .     A
C26    N31     1.358   1_556 A
N27    N28     1.331   .     A
N28    C29     1.358   .     A
C29    C32     1.483   .     S
C29    N30     1.359   1_556 A
N30    N31     1.332   .     A
N30    C29     1.359   1_554 A
N31    C26     1.358   1_554 A
C32    C37     1.408   .     A
C32    C33     1.407   1_556 A
C33    C34     1.397   .     A
C33    H42     1.083   .     S
C33    C32     1.407   1_554 A
C34    C35     1.403   1_554 A
C34    H43     1.083   1_455 S
C35    C36     1.403   .     A
C35    C34     1.403   1_556 A
C35    C17     1.474   1_456 S
C36    C37     1.398   .     A
C36    H44     1.083   .     S
C37    H45     1.083   .     S
H39    C22     1.080   1_655 S
H43    C34     1.083   1_655 S
C46    C47     1.408   .     A
C46    C52     1.482   .     S
C46    C51     1.407   1_554 A
C47    C48     1.398   .     A
C47    H64     1.083   .     S
C48    H65     1.084   .     S
C48    C49     1.401   1_554 A
C49    C50     1.402   .     A
C49    C48     1.401   1_556 A
C49    C19     1.468   1_545 S
C50    C51     1.397   .     A
C50    H66     1.084   .     S
C51    H67     1.083   .     S
C51    C46     1.407   1_556 A
C52    N57     1.358   .     A
C52    N53     1.359   1_554 A
N53    N54     1.332   .     A
N53    C52     1.359   1_556 A
N54    C55     1.358   1_556 A
C55    N56     1.358   .     A
C55    C58     1.482   .     S
C55    N54     1.358   1_554 A
N56    N57     1.332   .     A
C58    C59     1.408   .     A
C58    C63     1.408   1_554 A
C59    C60     1.397   .     A
C59    H68     1.083   .     S
C60    H69     1.084   .     S
C60    C61     1.399   1_554 A
C61    C62     1.400   .     A
C61    C60     1.399   1_556 A
C61    C16     1.462   1_556 S
C62    C63     1.398   .     A
C62    H70     1.082   .     S
C63    H71     1.083   .     S
C63    C58     1.408   1_556 A
C72    C78     1.481   .     S
C72    C73     1.404   1_455 A
C72    C77     1.406   1_545 A
C73    C74     1.400   .     A
C73    H90     1.081   .     S
C73    C72     1.404   1_655 A
C74    C75     1.407   .     A
C74    H91     1.082   .     S
C75    C76     1.405   1_645 A
C75    C18     1.483   1_645 S
C76    C77     1.393   .     A
C76    H92     1.079   .     S
C76    C75     1.405   1_465 A
C77    H93     1.083   .     S
C77    C72     1.406   1_565 A
C78    N83     1.360   .     A
C78    N79     1.356   1_545 A
N79    N80     1.328   .     A
N79    C78     1.356   1_565 A
N80    C81     1.358   1_565 A
C81    N82     1.359   .     A
C81    C84     1.483   .     S
C81    N80     1.358   1_545 A
N82    N83     1.334   .     A
C84    C85     1.407   1_455 A
C84    C89     1.406   1_545 A
C85    C86     1.401   .     A
C85    H94     1.083   .     S
C85    C84     1.407   1_655 A
C86    H95     1.084   .     S
C86    C87     1.408   1_655 A
C87    C86     1.408   1_455 A
C87    C88     1.402   1_545 A
C87    C12     1.476   1_455 S
C88    C89     1.392   .     A
C88    H96     1.083   .     S
C88    C87     1.402   1_565 A
C89    H97     1.081   .     S
C89    C84     1.406   1_565 A
