data_pcu+N505+E161
_audit_creation_date              2023-11-17
_audit_creation_method            'Materials Studio'
_symmetry_space_group_name_H-M    'P1'
_symmetry_Int_Tables_number       1
_symmetry_cell_setting            triclinic
loop_
_symmetry_equiv_pos_as_xyz
  x,y,z
_cell_length_a                    22.0619
_cell_length_b                    26.6774
_cell_length_c                    26.2700
_cell_angle_alpha                 90.5504
_cell_angle_beta                  47.6346
_cell_angle_gamma                 83.8280
loop_
_atom_site_label
_atom_site_type_symbol
_atom_site_fract_x
_atom_site_fract_y
_atom_site_fract_z
_atom_site_U_iso_or_equiv
_atom_site_adp_type
_atom_site_occupancy
Yb0    Yb    1.00903   0.06751  -0.06950   0.00000  Uiso   1.00
Yb1    Yb   -0.00076   0.93508   1.06227   0.00000  Uiso   1.00
C2     C     0.01127   0.84239   1.04560   0.00000  Uiso   1.00
O3     O     0.05739   0.02230   0.84085   0.00000  Uiso   1.00
O4     O     0.93597   0.07106   0.90574   0.00000  Uiso   1.00
O5     O     0.95273   0.00671  -0.00553   0.00000  Uiso   1.00
O6     O     0.90247   0.94477   1.05843   0.00000  Uiso   1.00
O7     O     1.04316   0.13715   0.89111   0.00000  Uiso   1.00
O8     O     0.95279   0.13174   0.00327   0.00000  Uiso   1.00
O9     O     0.94827   0.98392   0.15019   0.00000  Uiso   1.00
O10    O     0.06856   0.93470   0.09042   0.00000  Uiso   1.00
C11    C     0.99309   0.04013   0.85044   0.00000  Uiso   1.00
O12    O     0.10946   0.05504  -0.07027   0.00000  Uiso   1.00
O13    O     0.05749   0.99417   0.99589   0.00000  Uiso   1.00
O14    O    -0.03869   0.86737   0.10652   0.00000  Uiso   1.00
C15    C     0.89730   0.97821   0.02674   0.00000  Uiso   1.00
O16    O     0.05588   0.86823   0.99340   0.00000  Uiso   1.00
C17    C     0.99424   0.15981  -0.04666   0.00000  Uiso   1.00
C18    C     0.01074   0.96719   0.14351   0.00000  Uiso   1.00
C19    C     0.11469   0.02140   0.96135   0.00000  Uiso   1.00
H20    H     1.02664   0.23017   0.86832   0.00000  Uiso   1.00
C21    C     0.01557   0.78713   1.03677   0.00000  Uiso   1.00
C22    C    -0.00881   0.75826   0.09058   0.00000  Uiso   1.00
C23    C    -0.00979   0.70611   0.08492   0.00000  Uiso   1.00
C24    C     0.01249   0.68260   1.02492   0.00000  Uiso   1.00
C25    C     1.03797   0.71138   0.97020   0.00000  Uiso   1.00
C26    C     1.04021   0.76333   0.97628   0.00000  Uiso   1.00
C27    C    -0.03484   0.67586   0.14297   0.00000  Uiso   1.00
C28    C     1.06109   0.68711   0.90617   0.00000  Uiso   1.00
C29    C     0.93386   0.61480   0.04940   0.00000  Uiso   1.00
C30    C     0.92819   0.56322   0.04514   0.00000  Uiso   1.00
C31    C     0.00013   0.52696   0.01006   0.00000  Uiso   1.00
C32    C     0.07620   0.54264   0.98007   0.00000  Uiso   1.00
C33    C     0.07880   0.59465   0.98570   0.00000  Uiso   1.00
C34    C     0.85262   0.54710   0.07490   0.00000  Uiso   1.00
C35    C     0.84839   0.49561   0.07018   0.00000  Uiso   1.00
C36    C     0.91977   0.45911   0.03516   0.00000  Uiso   1.00
C37    C    -0.00414   0.47485   0.00510   0.00000  Uiso   1.00
C38    C     0.06779   0.43857   0.97003   0.00000  Uiso   1.00
C39    C     0.14341   0.45466   0.94014   0.00000  Uiso   1.00
C40    C     0.14748   0.50612   0.94525   0.00000  Uiso   1.00
C41    C     0.91738   0.40714   0.02882   0.00000  Uiso   1.00
C42    C     0.06210   0.38699   0.96566   0.00000  Uiso   1.00
C43    C    -0.01519   0.31943  -0.01360   0.00000  Uiso   1.00
C44    C    -0.06160   0.30794   0.10428   0.00000  Uiso   1.00
C45    C    -0.03716   0.23613   0.02782   0.00000  Uiso   1.00
C46    C     1.02794   0.33172   0.87086   0.00000  Uiso   1.00
C47    C     1.00898   0.24637   0.91541   0.00000  Uiso   1.00
C48    C     1.00686   0.29852   0.92529   0.00000  Uiso   1.00
C49    C    -0.03784   0.28797   0.03818   0.00000  Uiso   1.00
C50    C     0.98758   0.21493  -0.03384   0.00000  Uiso   1.00
H51    H     0.08341   0.34917   0.84997   0.00000  Uiso   1.00
N52    N     0.00831   0.62945   1.01985   0.00000  Uiso   1.00
N53    N    -0.01211   0.37237  -0.00556   0.00000  Uiso   1.00
H54    H     0.97489   0.36226   0.89384   0.00000  Uiso   1.00
H55    H    -0.02691   0.77637   0.13706   0.00000  Uiso   1.00
H56    H     1.05809   0.78559   0.93496   0.00000  Uiso   1.00
H57    H    -0.04834   0.69971   0.18540   0.00000  Uiso   1.00
H58    H    -0.09153   0.65955   0.16503   0.00000  Uiso   1.00
H59    H     0.01637   0.64457   0.12305   0.00000  Uiso   1.00
H60    H     1.00809   0.67034   0.92042   0.00000  Uiso   1.00
H61    H     1.07785   0.71503   0.86883   0.00000  Uiso   1.00
H62    H     0.11537   0.65664   0.88005   0.00000  Uiso   1.00
O63    O     0.15241   0.61068   0.95676   0.00000  Uiso   1.00
O64    O     0.86448   0.65079   0.08331   0.00000  Uiso   1.00
H65    H     0.79654   0.57427   0.10167   0.00000  Uiso   1.00
H66    H     0.20665   0.51719   0.92160   0.00000  Uiso   1.00
H67    H     0.78916   0.48449   0.09379   0.00000  Uiso   1.00
H68    H    -0.01716   0.28833   0.10727   0.00000  Uiso   1.00
H69    H    -0.06094   0.34926   0.10789   0.00000  Uiso   1.00
H70    H    -0.05358   0.21203   0.06716   0.00000  Uiso   1.00
H71    H     0.19951   0.42754   0.91305   0.00000  Uiso   1.00
H72    H     1.04171   0.30981   0.82706   0.00000  Uiso   1.00
O73    O     0.13148   0.35104   0.93161   0.00000  Uiso   1.00
O74    O     0.84395   0.39115   0.05718   0.00000  Uiso   1.00
H75    H     0.87479   0.30035   0.14947   0.00000  Uiso   1.00
H76    H     0.82225   0.90265   0.03145   0.00000  Uiso   1.00
C77    C     0.18464   1.01593   0.95796   0.00000  Uiso   1.00
C78    C     0.22346   0.05811   0.94787   0.00000  Uiso   1.00
C79    C     0.28567   0.05484   0.94978   0.00000  Uiso   1.00
C80    C     0.31034   1.00836   0.96101   0.00000  Uiso   1.00
C81    C     0.27476   0.96508  -0.03274   0.00000  Uiso   1.00
C82    C     0.21317   0.96911  -0.03556   0.00000  Uiso   1.00
C83    C     0.32431   0.10109   0.94119   0.00000  Uiso   1.00
C84    C     0.30261   0.91478  -0.02336   0.00000  Uiso   1.00
C85    C     0.33821   0.01258   0.03523   0.00000  Uiso   1.00
C86    C     0.39284   0.00988   0.04581   0.00000  Uiso   1.00
C87    C     0.47897   1.00063   0.98789   0.00000  Uiso   1.00
C88    C     0.50907   0.99432   0.92062   0.00000  Uiso   1.00
C89    C     0.45183   0.99699   0.91274   0.00000  Uiso   1.00
C90    C     0.36349   0.01607   0.11256   0.00000  Uiso   1.00
C91    C     0.41891   0.01272   0.12193   0.00000  Uiso   1.00
C92    C     0.50497   0.00383   0.06459   0.00000  Uiso   1.00
C93    C     0.53513  -0.00205   0.99728   0.00000  Uiso   1.00
C94    C     0.62125   0.98903   0.93945   0.00000  Uiso   1.00
C95    C     0.65063   0.98257   0.87264   0.00000  Uiso   1.00
C96    C     0.59514   0.98534   0.86328   0.00000  Uiso   1.00
C97    C     0.56196   0.00046   0.07272   0.00000  Uiso   1.00
C98    C     0.67578   0.98685   0.95021   0.00000  Uiso   1.00
C99    C     0.70297  -0.01017   1.02519   0.00000  Uiso   1.00
C100   C     0.69720   0.08623   1.02763   0.00000  Uiso   1.00
C101   C     0.79426   0.03008   1.02887   0.00000  Uiso   1.00
C102   C     0.70549   0.89463   0.02602   0.00000  Uiso   1.00
C103   C     0.79691   0.93921   0.03027   0.00000  Uiso   1.00
C104   C     0.73505   0.94224   0.02785   0.00000  Uiso   1.00
C105   C     0.73156   0.03421   1.02731   0.00000  Uiso   1.00
C106   C     0.82894  -0.01731   0.02815   0.00000  Uiso   1.00
H107   H     0.71952   0.88874   0.97689   0.00000  Uiso   1.00
N108   N     0.36834   1.00588   0.96967   0.00000  Uiso   1.00
N109   N     0.64545  -0.00743   1.01598   0.00000  Uiso   1.00
H110   H     0.63749   0.89794   0.07044   0.00000  Uiso   1.00
H111   H     0.20349   0.09408   0.94049   0.00000  Uiso   1.00
H112   H     0.18764   0.93580  -0.03315   0.00000  Uiso   1.00
H113   H     0.29607   0.13484   0.93515   0.00000  Uiso   1.00
H114   H     0.31551   0.11027   0.98726   0.00000  Uiso   1.00
H115   H     0.39190   0.09386   0.89444   0.00000  Uiso   1.00
H116   H     0.29144   0.91819   0.02463   0.00000  Uiso   1.00
H117   H     0.26854   0.88477  -0.01914   0.00000  Uiso   1.00
H118   H     0.36993   0.90258   0.93160   0.00000  Uiso   1.00
O119   O     0.47976   0.99109   0.84771   0.00000  Uiso   1.00
O120   O     0.25405   0.02255   0.09095   0.00000  Uiso   1.00
H121   H     0.29776   0.02376   0.15774   0.00000  Uiso   1.00
H122   H     0.61996   0.97999   0.81105   0.00000  Uiso   1.00
H123   H     0.39404   0.01737   0.17417   0.00000  Uiso   1.00
H124   H     0.74748   0.10367   0.98117   0.00000  Uiso   1.00
H125   H     0.64678   0.08566   1.02779   0.00000  Uiso   1.00
H126   H     0.81508   0.06408   1.03180   0.00000  Uiso   1.00
H127   H     0.71646   0.97501   0.82741   0.00000  Uiso   1.00
H128   H     0.73575   0.86051   0.02964   0.00000  Uiso   1.00
O129   O     0.75999   0.97873   0.89448   0.00000  Uiso   1.00
O130   O     0.53387   0.00514   0.13789   0.00000  Uiso   1.00
H131   H     0.67127   0.11070   0.07457   0.00000  Uiso   1.00
H132   H     0.10764   0.98190   0.72711   0.00000  Uiso   1.00
C133   C     1.01396  -0.01797   0.19588   0.00000  Uiso   1.00
C134   C     0.94310   0.00849   0.26011   0.00000  Uiso   1.00
C135   C     0.94158   0.01643   0.31391   0.00000  Uiso   1.00
C136   C     1.01229  -0.00213   0.30317   0.00000  Uiso   1.00
C137   C     0.08516   0.97340   0.23752   0.00000  Uiso   1.00
C138   C     0.08534   0.96570   0.18448   0.00000  Uiso   1.00
C139   C     0.86368   0.04305   0.38335   0.00000  Uiso   1.00
C140   C     0.16132   0.95348   0.22495   0.00000  Uiso   1.00
C141   C     0.98323   0.96103   0.40033   0.00000  Uiso   1.00
C142   C     0.97760   0.96246   0.45698   0.00000  Uiso   1.00
C143   C     0.99852   0.00481   0.47174   0.00000  Uiso   1.00
C144   C     1.02480   0.04484   0.42979   0.00000  Uiso   1.00
C145   C     1.02914   0.04183   0.37379   0.00000  Uiso   1.00
C146   C     0.95133   0.92280   0.49922   0.00000  Uiso   1.00
C147   C     0.94569   0.92518   0.55555   0.00000  Uiso   1.00
C148   C     0.96671   0.96712   0.57065   0.00000  Uiso   1.00
C149   C     0.99349   0.00701   0.52844   0.00000  Uiso   1.00
C150   C     1.01524   0.04908   0.54278   0.00000  Uiso   1.00
C151   C     1.04152   0.08873   0.50058   0.00000  Uiso   1.00
C152   C     1.04618   0.08668   0.44474   0.00000  Uiso   1.00
C153   C     0.96175   0.97027   0.62693   0.00000  Uiso   1.00
C154   C     1.01010   0.05033   0.59919   0.00000  Uiso   1.00
C155   C     0.98146   0.01317   0.69607   0.00000  Uiso   1.00
C156   C     0.83739   0.06498   0.77393   0.00000  Uiso   1.00
C157   C     0.91602   0.04805   0.81149   0.00000  Uiso   1.00
C158   C     0.12387   0.95918   0.61744   0.00000  Uiso   1.00
C159   C     0.05324   0.99807   0.73644   0.00000  Uiso   1.00
C160   C     0.05114   0.99053   0.68484   0.00000  Uiso   1.00
C161   C     0.91284   0.04120   0.76038   0.00000  Uiso   1.00
C162   C     0.98663   1.02762   0.79941   0.00000  Uiso   1.00
H163   H     0.14952  -0.01807   0.57365   0.00000  Uiso   1.00
N164   N     1.00808   0.00048   0.36043   0.00000  Uiso   1.00
N165   N     0.98394   0.01125   0.63976   0.00000  Uiso   1.00
H166   H     0.10328   0.92574   0.61067   0.00000  Uiso   1.00
H167   H     0.88779   0.02118   0.26929   0.00000  Uiso   1.00
H168   H     0.14044   0.94542   0.13482   0.00000  Uiso   1.00
H169   H     0.81349   0.05485   0.38371   0.00000  Uiso   1.00
H170   H     0.84068   0.01726   0.42412   0.00000  Uiso   1.00
H171   H     0.87733   0.07747   0.39606   0.00000  Uiso   1.00
H172   H     0.14701   0.92361   0.25912   0.00000  Uiso   1.00
H173   H     0.21438   0.93706   0.17033   0.00000  Uiso   1.00
H174   H     0.18095  -0.01513   0.23649   0.00000  Uiso   1.00
O175   O     1.05445   0.08055   0.33247   0.00000  Uiso   1.00
O176   O     0.96364   0.91981   0.38494   0.00000  Uiso   1.00
H177   H     0.93449   0.88985   0.48928   0.00000  Uiso   1.00
H178   H     1.06672   0.11802   0.41346   0.00000  Uiso   1.00
H179   H     0.92495   0.89395   0.58702   0.00000  Uiso   1.00
H180   H     0.78626   0.08150   0.82881   0.00000  Uiso   1.00
H181   H     0.85376   0.09583   0.74045   0.00000  Uiso   1.00
H182   H     0.86443   0.07081   0.86009   0.00000  Uiso   1.00
H183   H     1.05836   0.12163   0.51052   0.00000  Uiso   1.00
H184   H     0.17438   0.94530   0.61604   0.00000  Uiso   1.00
O185   O     1.03187   0.09098   0.61337   0.00000  Uiso   1.00
O186   O     0.93526   0.93189   0.66878   0.00000  Uiso   1.00
H187   H     0.81454   1.03597   0.76228   0.00000  Uiso   1.00
loop_
_geom_bond_atom_site_label_1
_geom_bond_atom_site_label_2
_geom_bond_distance
_geom_bond_site_symmetry_2
_ccdc_geom_bond_type
Yb0    O5      2.161   .     S
Yb0    O8      2.101   .     S
Yb0    O3      2.103   1_654 S
Yb0    O4      2.100   1_554 S
Yb0    O7      2.092   1_554 S
Yb0    O12     2.191   1_655 S
Yb1    O13     2.155   .     S
Yb1    O16     2.104   .     S
Yb1    O6      2.193   1_455 S
Yb1    O9      2.103   1_456 S
Yb1    O10     2.099   1_556 S
Yb1    O14     2.090   1_556 S
C2     O16     1.292   .     A
C2     C21     1.473   .     S
C2     O14     1.290   1_556 A
O3     Yb0     2.103   1_456 S
O3     C11     1.293   1_455 A
O4     C11     1.291   .     A
O4     Yb0     2.100   1_556 S
O5     C15     1.268   1_545 A
O6     Yb1     2.193   1_655 S
O6     C15     1.274   1_556 A
O7     Yb0     2.092   1_556 S
O7     C17     1.291   1_556 A
O8     C17     1.291   .     A
O9     Yb1     2.103   1_654 S
O9     C18     1.292   1_655 A
O10    C18     1.290   .     A
O10    Yb1     2.099   1_554 S
C11    O3      1.293   1_655 A
C11    C162    1.479   1_545 S
O12    Yb0     2.191   1_455 S
O12    C19     1.277   1_554 A
O13    C19     1.269   1_565 A
O14    Yb1     2.090   1_554 S
O14    C2      1.290   1_554 A
C15    O5      1.268   1_565 A
C15    O6      1.274   1_554 A
C15    C106    1.475   1_565 S
C17    C50     1.475   .     S
C17    O7      1.291   1_554 A
C18    O9      1.292   1_455 A
C18    C133    1.477   1_465 S
C19    O12     1.277   1_556 A
C19    O13     1.269   1_545 A
C19    C77     1.475   1_545 S
H20    C47     1.083   .     S
C21    C22     1.402   1_556 A
C21    C26     1.402   1_455 A
C22    C23     1.402   .     A
C22    H55     1.084   .     S
C22    C21     1.402   1_554 A
C23    C27     1.505   .     S
C23    C24     1.411   1_554 A
C24    N52     1.441   .     S
C24    C23     1.411   1_556 A
C24    C25     1.413   1_455 A
C25    C26     1.403   .     A
C25    C28     1.503   .     S
C25    C24     1.413   1_655 A
C26    H56     1.083   .     S
C26    C21     1.402   1_655 A
C27    H57     1.111   .     S
C27    H58     1.111   .     S
C27    H59     1.113   .     S
C28    H60     1.111   .     S
C28    H61     1.113   .     S
C28    H62     1.113   1_655 S
C29    C30     1.405   .     A
C29    O64     1.374   .     S
C29    N52     1.371   1_654 A
C30    C34     1.407   .     A
C30    C31     1.409   1_655 A
C31    C37     1.414   .     A
C31    C30     1.409   1_455 A
C31    C32     1.410   1_554 A
C32    C33     1.405   .     A
C32    C40     1.405   .     A
C32    C31     1.410   1_556 A
C33    N52     1.371   .     A
C33    O63     1.375   .     S
C34    C35     1.397   .     A
C34    H65     1.084   .     S
C35    C36     1.405   .     A
C35    H67     1.084   .     S
C36    C41     1.406   .     A
C36    C37     1.410   1_655 A
C37    C36     1.410   1_455 A
C37    C38     1.409   1_554 A
C38    C39     1.407   .     A
C38    C42     1.406   .     A
C38    C37     1.409   1_556 A
C39    C40     1.396   .     A
C39    H71     1.083   .     S
C40    H66     1.082   .     S
C41    O74     1.375   .     S
C41    N53     1.370   1_655 A
C42    O73     1.373   .     S
C42    N53     1.371   1_556 A
C43    C49     1.414   .     A
C43    N53     1.442   .     S
C43    C48     1.413   1_454 A
C44    C49     1.507   .     S
C44    H68     1.111   .     S
C44    H69     1.108   .     S
C44    H75     1.114   1_455 S
C45    C49     1.403   .     A
C45    H70     1.082   .     S
C45    C50     1.402   1_455 A
C46    C48     1.504   .     S
C46    H54     1.110   .     S
C46    H72     1.111   .     S
C46    H51     1.113   1_655 S
C47    C48     1.403   .     A
C47    C50     1.401   1_556 A
C48    C43     1.413   1_656 A
C50    C45     1.402   1_655 A
C50    C47     1.401   1_554 A
H51    C46     1.113   1_455 S
N52    C29     1.371   1_456 A
N53    C41     1.370   1_455 A
N53    C42     1.371   1_554 A
H62    C28     1.113   1_455 S
H75    C44     1.114   1_655 S
H76    C103    1.082   .     S
C77    C78     1.406   1_565 A
C77    C82     1.402   1_556 A
C77    C19     1.475   1_565 S
C78    C79     1.400   .     A
C78    H111    1.087   .     S
C78    C77     1.406   1_545 A
C79    C83     1.508   .     S
C79    C80     1.414   1_545 A
C80    N108    1.438   .     S
C80    C79     1.414   1_565 A
C80    C81     1.415   1_556 A
C81    C82     1.402   .     A
C81    C84     1.507   .     S
C81    C80     1.415   1_554 A
C82    H112    1.082   .     S
C82    C77     1.402   1_554 A
C83    H113    1.113   .     S
C83    H114    1.109   .     S
C83    H115    1.111   .     S
C84    H116    1.110   .     S
C84    H117    1.112   .     S
C84    H118    1.110   1_554 S
C85    C86     1.403   .     A
C85    O120    1.373   .     S
C85    N108    1.366   1_544 A
C86    C90     1.401   .     A
C86    C87     1.408   1_544 A
C87    C88     1.407   .     A
C87    C86     1.408   1_566 A
C87    C93     1.412   1_565 A
C88    C89     1.406   .     A
C88    C96     1.404   .     A
C89    N108    1.368   .     A
C89    O119    1.370   .     S
C90    C91     1.395   .     A
C90    H121    1.080   .     S
C91    C92     1.404   .     A
C91    H123    1.080   .     S
C92    C97     1.405   .     A
C92    C93     1.407   1_554 A
C93    C87     1.412   1_545 A
C93    C92     1.407   1_556 A
C93    C94     1.407   1_545 A
C94    C95     1.403   .     A
C94    C98     1.405   .     A
C94    C93     1.407   1_565 A
C95    C96     1.397   .     A
C95    H127    1.081   .     S
C96    H122    1.082   .     S
C97    O130    1.371   .     S
C97    N109    1.367   1_554 A
C98    O129    1.372   .     S
C98    N109    1.368   1_565 A
C99    C105    1.418   .     A
C99    N109    1.438   .     S
C99    C104    1.412   1_546 A
C100   C105    1.505   .     S
C100   H124    1.111   .     S
C100   H125    1.111   .     S
C100   H131    1.108   1_556 S
C101   C105    1.404   .     A
C101   H126    1.084   .     S
C101   C106    1.398   1_556 A
C102   C104    1.503   .     S
C102   H110    1.109   .     S
C102   H128    1.113   .     S
C102   H107    1.111   1_554 S
C103   C104    1.402   .     A
C103   C106    1.405   1_565 A
C104   C99     1.412   1_564 A
C106   C101    1.398   1_554 A
C106   C103    1.405   1_545 A
C106   C15     1.475   1_545 S
H107   C102    1.111   1_556 S
N108   C85     1.366   1_566 A
N109   C97     1.367   1_556 A
N109   C98     1.368   1_545 A
H118   C84     1.110   1_556 S
H131   C100    1.108   1_554 S
H132   C159    1.085   .     S
C133   C134    1.405   .     A
C133   C138    1.405   1_645 A
C133   C18     1.477   1_645 S
C134   C135    1.404   .     A
C134   H167    1.084   .     S
C135   C136    1.413   .     A
C135   C139    1.508   .     S
C136   N164    1.444   .     S
C136   C137    1.415   1_645 A
C137   C138    1.404   .     A
C137   C140    1.507   .     S
C137   C136    1.415   1_465 A
C138   H168    1.086   .     S
C138   C133    1.405   1_465 A
C139   H169    1.112   .     S
C139   H170    1.111   .     S
C139   H171    1.111   .     S
C140   H172    1.108   .     S
C140   H173    1.111   .     S
C140   H174    1.109   1_565 S
C141   C142    1.407   .     A
C141   O176    1.374   .     S
C141   N164    1.370   1_565 A
C142   C146    1.405   .     A
C142   C143    1.409   1_565 A
C143   C144    1.409   .     A
C143   C149    1.417   .     A
C143   C142    1.409   1_545 A
C144   C145    1.409   .     A
C144   C152    1.406   .     A
C145   N164    1.371   .     A
C145   O175    1.373   .     S
C146   C147    1.399   .     A
C146   H177    1.084   .     S
C147   C148    1.406   .     A
C147   H179    1.083   .     S
C148   C153    1.408   .     A
C148   C149    1.409   1_565 A
C149   C150    1.408   .     A
C149   C148    1.409   1_545 A
C150   C151    1.404   .     A
C150   C154    1.408   .     A
C151   C152    1.400   .     A
C151   H183    1.083   .     S
C152   H178    1.083   .     S
C153   O186    1.372   .     S
C153   N165    1.371   1_565 A
C154   N165    1.370   .     A
C154   O185    1.375   .     S
C155   C161    1.411   .     A
C155   N165    1.443   .     S
C155   C160    1.414   1_645 A
C156   C161    1.507   .     S
C156   H180    1.111   .     S
C156   H181    1.109   .     S
C156   H187    1.111   1_545 S
C157   C161    1.402   .     A
C157   H182    1.083   .     S
C157   C162    1.404   1_545 A
C158   C160    1.504   .     S
C158   H166    1.107   .     S
C158   H184    1.112   .     S
C158   H163    1.105   1_565 S
C159   C160    1.401   .     A
C159   C162    1.403   1_455 A
C160   C155    1.414   1_465 A
C162   C157    1.404   1_565 A
C162   C159    1.403   1_655 A
C162   C11     1.479   1_565 S
H163   C158    1.105   1_545 S
N164   C141    1.370   1_545 A
N165   C153    1.371   1_545 A
H174   C140    1.109   1_545 S
H187   C156    1.111   1_565 S
