data_pcu+N144+E183
_audit_creation_date              2023-11-17
_audit_creation_method            'Materials Studio'
_symmetry_space_group_name_H-M    'P1'
_symmetry_Int_Tables_number       1
_symmetry_cell_setting            triclinic
loop_
_symmetry_equiv_pos_as_xyz
  x,y,z
_cell_length_a                    15.0141
_cell_length_b                    13.2541
_cell_length_c                    13.2677
_cell_angle_alpha                 90.0785
_cell_angle_beta                  104.8941
_cell_angle_gamma                 80.2874
loop_
_atom_site_label
_atom_site_type_symbol
_atom_site_fract_x
_atom_site_fract_y
_atom_site_fract_z
_atom_site_U_iso_or_equiv
_atom_site_adp_type
_atom_site_occupancy
C0     C     0.27606   0.00436   0.10075   0.00000  Uiso   1.00
Er1    Er    0.91573   0.99617   0.96185   0.00000  Uiso   1.00
Er2    Er    0.07422   0.96587   0.00919   0.00000  Uiso   1.00
C3     C    -0.00014   0.98046   0.19968   0.00000  Uiso   1.00
O4     O     0.07151   0.13029   0.00754   0.00000  Uiso   1.00
C5     C    -0.00503   0.76914  -0.01420   0.00000  Uiso   1.00
C6     C     0.99937   0.97999   0.77515   0.00000  Uiso   1.00
C7     C     0.75088   0.02189   1.00232   0.00000  Uiso   1.00
O8     O     0.24289   0.05742   0.16165   0.00000  Uiso   1.00
O9     O     0.22913  -0.06920   1.04653   0.00000  Uiso   1.00
O10    O     0.07546   0.96505   0.84618   0.00000  Uiso   1.00
O11    O     0.92231   0.99510   0.80007   0.00000  Uiso   1.00
O12    O     0.07202   0.80248   0.00919   0.00000  Uiso   1.00
O13    O     0.91799   0.83194   0.96229   0.00000  Uiso   1.00
C14    C     0.99427   0.19301  -0.01488   0.00000  Uiso   1.00
O15    O     0.91707   0.15968  -0.03735   0.00000  Uiso   1.00
O16    O     0.07626   0.96589   0.17309   0.00000  Uiso   1.00
O17    O     0.92188   0.99513   0.12942   0.00000  Uiso   1.00
O18    O     0.76324   0.02073   0.91191   0.00000  Uiso   1.00
O19    O     0.82767   0.01215   0.07282   0.00000  Uiso   1.00
C20    C    -0.00514   0.65821  -0.01416   0.00000  Uiso   1.00
C21    C     0.94720   0.49018  -0.03064   0.00000  Uiso   1.00
C22    C     0.04204   0.47194   1.00176   0.00000  Uiso   1.00
S23    S     0.89049   0.38885  -0.05009   0.00000  Uiso   1.00
S24    S     0.09845   0.34887   1.02075   0.00000  Uiso   1.00
S25    S     0.89081   0.61325  -0.04981   0.00000  Uiso   1.00
S26    S     0.09873   0.57328   1.02130   0.00000  Uiso   1.00
C27    C    -0.00563   0.30393  -0.01474   0.00000  Uiso   1.00
C28    C     0.36658   0.01554   1.08336   0.00000  Uiso   1.00
C29    C     0.52747   0.04092   1.10177   0.00000  Uiso   1.00
C30    C     0.49639   0.00968   1.00341   0.00000  Uiso   1.00
S31    S     0.64015   0.05983   1.14159   0.00000  Uiso   1.00
S32    S     0.56965  -0.00479   0.92491   0.00000  Uiso   1.00
S33    S     0.45240   0.05604   1.17932   0.00000  Uiso   1.00
S34    S     0.38673   0.98369   0.96490   0.00000  Uiso   1.00
C35    C     0.65852   0.02782   1.02204   0.00000  Uiso   1.00
C36    C     0.00041   0.98050   0.31066   0.00000  Uiso   1.00
C37    C     0.04792   0.97068   0.50150   0.00000  Uiso   1.00
C38    C     0.95296   0.98998   0.47381   0.00000  Uiso   1.00
S39    S     0.10436   0.95897   0.63021   0.00000  Uiso   1.00
S40    S     0.89615   0.00129   0.56920   0.00000  Uiso   1.00
S41    S     0.10457   0.95924   0.40575   0.00000  Uiso   1.00
S42    S     0.89635   0.00165   0.34536   0.00000  Uiso   1.00
C43    C     0.00008   0.97995   0.66453   0.00000  Uiso   1.00
loop_
_geom_bond_atom_site_label_1
_geom_bond_atom_site_label_2
_geom_bond_distance
_geom_bond_site_symmetry_2
_ccdc_geom_bond_type
C0     O8      1.218   .     D
C0     O9      1.391   1_554 S
C0     C28     1.467   1_554 S
Er1    O11     2.174   .     S
Er1    O13     2.171   .     S
Er1    O15     2.171   1_566 S
Er1    O17     2.201   1_556 S
Er1    O18     2.181   1_565 S
Er1    O19     2.206   1_566 S
Er2    O12     2.171   .     S
Er2    O16     2.167   .     S
Er2    O4      2.173   1_565 S
Er2    O9      2.217   1_564 S
Er2    O10     2.168   1_554 S
C3     O16     1.269   .     A
C3     C36     1.470   .     S
C3     O17     1.281   1_455 A
O4     Er2     2.173   1_545 S
O4     C14     1.274   1_455 A
C5     O12     1.272   .     A
C5     C20     1.471   .     S
C5     O13     1.272   1_454 A
C6     O11     1.267   .     A
C6     O10     1.266   1_655 A
C6     C43     1.470   1_655 S
C7     O18     1.260   .     A
C7     C35     1.465   .     S
C7     O19     1.272   1_556 A
O9     C0      1.391   1_556 S
O9     Er2     2.217   1_546 S
O10    Er2     2.168   1_556 S
O10    C6      1.266   1_455 A
O13    C5      1.272   1_656 A
C14    O15     1.274   .     A
C14    O4      1.274   1_655 A
C14    C27     1.470   1_655 S
O15    Er1     2.171   1_544 S
O17    Er1     2.201   1_554 S
O17    C3      1.281   1_655 A
O18    Er1     2.181   1_545 S
O19    Er1     2.206   1_544 S
O19    C7      1.272   1_554 A
C20    S25     1.718   1_455 A
C20    S26     1.718   1_554 A
C21    S23     1.693   .     A
C21    S25     1.693   .     A
C21    C22     1.357   1_654 A
C22    S24     1.693   .     A
C22    S26     1.693   .     A
C22    C21     1.357   1_456 A
S23    C27     1.718   1_655 A
S24    C27     1.719   1_556 A
S25    C20     1.718   1_655 A
S26    C20     1.718   1_556 A
C27    S23     1.718   1_455 A
C27    S24     1.719   1_554 A
C27    C14     1.470   1_455 S
C28    S33     1.720   .     A
C28    S34     1.714   1_545 A
C28    C0      1.467   1_556 S
C29    C30     1.358   .     A
C29    S31     1.699   .     A
C29    S33     1.699   .     A
C30    S32     1.688   .     A
C30    S34     1.688   1_545 A
S31    C35     1.719   .     A
S32    C35     1.714   .     A
S34    C28     1.714   1_565 A
S34    C30     1.688   1_565 A
C36    S41     1.719   .     A
C36    S42     1.718   1_465 A
C37    S39     1.694   .     A
C37    S41     1.695   .     A
C37    C38     1.357   1_455 A
C38    C37     1.357   1_655 A
C38    S40     1.692   1_565 A
C38    S42     1.692   1_565 A
S39    C43     1.719   .     A
S40    C38     1.692   1_545 A
S40    C43     1.718   1_645 A
S42    C36     1.718   1_645 A
S42    C38     1.692   1_545 A
C43    S40     1.718   1_465 A
C43    C6      1.470   1_455 S
