data_pcu+N144+E70
_audit_creation_date              2023-11-17
_audit_creation_method            'Materials Studio'
_symmetry_space_group_name_H-M    'P1'
_symmetry_Int_Tables_number       1
_symmetry_cell_setting            triclinic
loop_
_symmetry_equiv_pos_as_xyz
  x,y,z
_cell_length_a                    12.7185
_cell_length_b                    10.5370
_cell_length_c                    10.5540
_cell_angle_alpha                 89.8629
_cell_angle_beta                  102.4977
_cell_angle_gamma                 81.5333
loop_
_atom_site_label
_atom_site_type_symbol
_atom_site_fract_x
_atom_site_fract_y
_atom_site_fract_z
_atom_site_U_iso_or_equiv
_atom_site_adp_type
_atom_site_occupancy
C0     C     0.31855  -0.01900  -0.00254   0.00000  Uiso   1.00
Er1    Er    0.89531   0.97388   0.95543   0.00000  Uiso   1.00
Er2    Er    0.08204   0.94214   0.00341   0.00000  Uiso   1.00
C3     C    -0.00379   0.97038   0.24799   0.00000  Uiso   1.00
O4     O     0.07819   0.14729   0.00310   0.00000  Uiso   1.00
C5     C    -0.00825   0.69230  -0.00620   0.00000  Uiso   1.00
C6     C     0.99200   0.97134   0.71553   0.00000  Uiso   1.00
C7     C     0.70802  -0.00370   1.02815   0.00000  Uiso   1.00
O8     O     0.27478   0.03532  -0.10654   0.00000  Uiso   1.00
O9     O     0.26259  -0.09326   1.06101   0.00000  Uiso   1.00
O10    O     0.08203   0.94190   0.79674   0.00000  Uiso   1.00
O11    O     0.90302   0.98136   0.75296   0.00000  Uiso   1.00
O12    O     0.08044   0.73823   0.01109   0.00000  Uiso   1.00
O13    O     0.90075   0.76524   0.95686   0.00000  Uiso   1.00
C14    C     0.98908   0.22304  -0.00652   0.00000  Uiso   1.00
O15    O     0.89806   0.18093  -0.03559   0.00000  Uiso   1.00
O16    O     0.08514   0.94934   0.21066   0.00000  Uiso   1.00
O17    O     0.90588   0.97292   0.16585   0.00000  Uiso   1.00
O18    O     0.71579   0.00126   0.91095   0.00000  Uiso   1.00
O19    O     0.80059  -0.01746   0.10612   0.00000  Uiso   1.00
N20    N    -0.03245   0.46169   0.96682   0.00000  Uiso   1.00
H21    H     0.07893   0.59139   0.23866   0.00000  Uiso   1.00
C22    C    -0.00251   0.55998   0.04048   0.00000  Uiso   1.00
C23    C     0.04781   0.52486   0.16714   0.00000  Uiso   1.00
C24    C    -0.00411   0.35217   0.04138   0.00000  Uiso   1.00
S25    S     1.06029   0.36585   0.19989   0.00000  Uiso   1.00
N26    N     0.50866   0.00181   0.99039   0.00000  Uiso   1.00
H27    H     0.42185   0.96881   0.25980   0.00000  Uiso   1.00
C28    C     0.43221  -0.00951   1.05805   0.00000  Uiso   1.00
C29    C     0.47156   0.97989   1.19041   0.00000  Uiso   1.00
C30    C     0.60627  -0.00044   1.07254   0.00000  Uiso   1.00
S31    S     0.60753   0.98471   1.23469   0.00000  Uiso   1.00
N32    N     0.01683   0.94529   0.48815   0.00000  Uiso   1.00
H33    H     0.91456   0.21045   0.30871   0.00000  Uiso   1.00
C34    C    -0.00819   1.01751   0.37727   0.00000  Uiso   1.00
C35    C     0.94365   0.14125   0.38919   0.00000  Uiso   1.00
C36    C    -0.01225   1.01827   0.58389   0.00000  Uiso   1.00
S37    S     0.92859   0.17359   0.54136   0.00000  Uiso   1.00
loop_
_geom_bond_atom_site_label_1
_geom_bond_atom_site_label_2
_geom_bond_distance
_geom_bond_site_symmetry_2
_ccdc_geom_bond_type
C0     O8      1.217   .     D
C0     O9      1.392   1_554 S
C0     C28     1.467   1_554 S
Er1    O11     2.162   .     S
Er1    O13     2.189   .     S
Er1    O15     2.189   1_566 S
Er1    O17     2.195   1_556 S
Er1    O18     2.204   1_565 S
Er1    O19     2.188   1_566 S
Er2    O12     2.153   .     S
Er2    O16     2.181   .     S
Er2    O4      2.155   1_565 S
Er2    O9      2.219   1_564 S
Er2    O10     2.181   1_554 S
C3     O16     1.266   .     A
C3     C34     1.463   .     S
C3     O17     1.278   1_455 A
O4     Er2     2.155   1_545 S
O4     C14     1.271   1_455 A
C5     O12     1.270   .     A
C5     C22     1.464   .     S
C5     O13     1.274   1_454 A
C6     O11     1.267   .     A
C6     O10     1.269   1_655 A
C6     C36     1.461   1_655 S
C7     O18     1.264   .     A
C7     C30     1.464   .     S
C7     O19     1.271   1_556 A
O9     C0      1.392   1_556 S
O9     Er2     2.219   1_546 S
O10    Er2     2.181   1_556 S
O10    C6      1.269   1_455 A
O13    C5      1.274   1_656 A
C14    O15     1.276   .     A
C14    O4      1.271   1_655 A
C14    C24     1.461   1_655 S
O15    Er1     2.189   1_544 S
O17    Er1     2.195   1_554 S
O17    C3      1.278   1_655 A
O18    Er1     2.204   1_545 S
O19    Er1     2.188   1_544 S
O19    C7      1.271   1_554 A
N20    C22     1.347   1_556 A
N20    C24     1.353   1_556 A
H21    C23     1.083   .     S
C22    C23     1.375   .     A
C22    N20     1.347   1_554 A
C23    S25     1.687   1_455 A
C24    N20     1.353   1_554 A
C24    S25     1.713   1_455 A
C24    C14     1.461   1_455 S
S25    C23     1.687   1_655 A
S25    C24     1.713   1_655 A
N26    C28     1.343   .     A
N26    C30     1.349   .     A
H27    C29     1.082   1_554 S
C28    C29     1.376   1_545 A
C28    C0      1.467   1_556 S
C29    S31     1.699   .     A
C29    H27     1.082   1_556 S
C29    C28     1.376   1_565 A
C30    S31     1.714   1_545 A
S31    C30     1.714   1_565 A
N32    C34     1.347   .     A
N32    C36     1.353   .     A
H33    C35     1.082   .     S
C34    C35     1.375   1_465 A
C35    S37     1.688   .     A
C35    C34     1.375   1_645 A
C36    S37     1.713   1_465 A
C36    C6      1.461   1_455 S
S37    C36     1.713   1_645 A
