data_pcu+N505+E183
_audit_creation_date              2023-11-17
_audit_creation_method            'Materials Studio'
_symmetry_space_group_name_H-M    'P1'
_symmetry_Int_Tables_number       1
_symmetry_cell_setting            triclinic
loop_
_symmetry_equiv_pos_as_xyz
  x,y,z
_cell_length_a                    11.0980
_cell_length_b                    16.4978
_cell_length_c                    14.4096
_cell_angle_alpha                 92.7624
_cell_angle_beta                  33.3800
_cell_angle_gamma                 82.4239
loop_
_atom_site_label
_atom_site_type_symbol
_atom_site_fract_x
_atom_site_fract_y
_atom_site_fract_z
_atom_site_U_iso_or_equiv
_atom_site_adp_type
_atom_site_occupancy
Yb0    Yb    1.02143   0.12060  -0.09563   0.00000  Uiso   1.00
Yb1    Yb   -0.02121   0.87961   1.09579   0.00000  Uiso   1.00
C2     C    -0.00986   0.73026   1.05747   0.00000  Uiso   1.00
O3     O     0.18113   0.03079   0.69356   0.00000  Uiso   1.00
O4     O     0.87183   0.13982   0.86991   0.00000  Uiso   1.00
O5     O     0.81966   0.04138   0.07949   0.00000  Uiso   1.00
O6     O     0.76314   0.91682   1.11472   0.00000  Uiso   1.00
O7     O     1.16464   0.21815   0.78887   0.00000  Uiso   1.00
O8     O     0.86066   0.23993   0.07575   0.00000  Uiso   1.00
O9     O     0.81915   0.96940   0.30658   0.00000  Uiso   1.00
O10    O     0.12848   0.86037   0.13019   0.00000  Uiso   1.00
C11    C     1.02874   0.07306   0.73476   0.00000  Uiso   1.00
O12    O     0.23698   0.08340  -0.11446   0.00000  Uiso   1.00
O13    O     0.18060   0.95882   0.92064   0.00000  Uiso   1.00
O14    O    -0.16445   0.78207   0.21133   0.00000  Uiso   1.00
C15    C     0.74716   0.98515   0.08429   0.00000  Uiso   1.00
O16    O     0.13951   0.76027   0.92444   0.00000  Uiso   1.00
C17    C     1.01002   0.26995  -0.05726   0.00000  Uiso   1.00
C18    C    -0.02844   0.92712   0.26536   0.00000  Uiso   1.00
C19    C     0.25297   0.01507   0.91595   0.00000  Uiso   1.00
C20    C     0.99484   0.64154   1.03515   0.00000  Uiso   1.00
C21    C     0.90674   0.50685   0.08856   0.00000  Uiso   1.00
C22    C     0.09340   0.49336   0.91169   0.00000  Uiso   1.00
S23    S     0.79893   0.42521   0.17174   0.00000  Uiso   1.00
S24    S     0.20798   0.39564   0.78406   0.00000  Uiso   1.00
S25    S     0.79214   0.60458   0.21618   0.00000  Uiso   1.00
S26    S     0.20124   0.57500   0.82851   0.00000  Uiso   1.00
C27    C     0.00529   0.35868  -0.03490   0.00000  Uiso   1.00
C28    C     0.34221   1.00702   0.95304   0.00000  Uiso   1.00
C29    C     0.43370   0.04097   0.05332   0.00000  Uiso   1.00
C30    C     0.56647   0.95926   0.94689   0.00000  Uiso   1.00
S31    S     0.45098   0.08474   0.14976   0.00000  Uiso   1.00
S32    S     0.74127   0.90552   0.91719   0.00000  Uiso   1.00
S33    S     0.25877   0.09470   0.08311   0.00000  Uiso   1.00
S34    S     0.54926   0.91549   0.85040   0.00000  Uiso   1.00
C35    C     0.65785  -0.00680   0.04725   0.00000  Uiso   1.00
C36    C     0.97328   0.95422   0.36261   0.00000  Uiso   1.00
C37    C     0.92059   0.03819   0.54331   0.00000  Uiso   1.00
C38    C     0.07967   0.96196   0.45685   0.00000  Uiso   1.00
S39    S     0.84488   0.11307   0.68042   0.00000  Uiso   1.00
S40    S     0.19361   0.94592   0.49085   0.00000  Uiso   1.00
S41    S     0.80668   0.05424   0.50928   0.00000  Uiso   1.00
S42    S     0.15534   0.88708   0.31976   0.00000  Uiso   1.00
C43    C     0.02699   0.04594   0.63754   0.00000  Uiso   1.00
loop_
_geom_bond_atom_site_label_1
_geom_bond_atom_site_label_2
_geom_bond_distance
_geom_bond_site_symmetry_2
_ccdc_geom_bond_type
Yb0    O5      2.178   .     S
Yb0    O8      2.099   .     S
Yb0    O3      2.109   1_654 S
Yb0    O4      2.087   1_554 S
Yb0    O7      2.098   1_554 S
Yb0    O12     2.165   1_655 S
Yb1    O13     2.178   .     S
Yb1    O16     2.099   .     S
Yb1    O6      2.165   1_455 S
Yb1    O9      2.109   1_456 S
Yb1    O10     2.087   1_556 S
Yb1    O14     2.098   1_556 S
C2     O16     1.292   .     A
C2     O14     1.291   1_556 A
C2     C20     1.468   1_455 S
O3     Yb0     2.109   1_456 S
O3     C11     1.293   1_455 A
O4     C11     1.289   .     A
O4     Yb0     2.087   1_556 S
O5     C15     1.274   1_545 A
O6     Yb1     2.165   1_655 S
O6     C15     1.272   1_556 A
O7     Yb0     2.098   1_556 S
O7     C17     1.291   1_556 A
O8     C17     1.292   .     A
O9     Yb1     2.109   1_654 S
O9     C18     1.293   1_655 A
O10    C18     1.289   .     A
O10    Yb1     2.087   1_554 S
C11    O3      1.293   1_655 A
C11    C43     1.466   1_655 S
O12    Yb0     2.165   1_455 S
O12    C19     1.272   1_554 A
O13    C19     1.274   1_565 A
O14    Yb1     2.098   1_554 S
O14    C2      1.291   1_554 A
C15    O5      1.274   1_565 A
C15    O6      1.272   1_554 A
C15    C35     1.463   1_565 S
C17    O7      1.291   1_554 A
C17    C27     1.468   1_655 S
C18    O9      1.293   1_455 A
C18    C36     1.466   1_455 S
C19    O12     1.272   1_556 A
C19    O13     1.274   1_545 A
C19    C28     1.463   1_545 S
C20    S25     1.718   1_556 A
C20    S26     1.717   1_655 A
C20    C2      1.468   1_655 S
C21    S23     1.694   .     A
C21    S25     1.693   .     A
C21    C22     1.357   1_654 A
C22    S24     1.693   .     A
C22    S26     1.694   .     A
C22    C21     1.357   1_456 A
S23    C27     1.717   1_655 A
S24    C27     1.718   1_556 A
S25    C20     1.718   1_554 A
S26    C20     1.717   1_455 A
C27    S23     1.717   1_455 A
C27    S24     1.718   1_554 A
C27    C17     1.468   1_455 S
C28    S34     1.715   .     A
C28    S33     1.717   1_566 A
C28    C19     1.463   1_565 S
C29    S31     1.695   .     A
C29    S33     1.690   .     A
C29    C30     1.358   1_544 A
C30    S32     1.690   .     A
C30    S34     1.695   .     A
C30    C29     1.358   1_566 A
S31    C35     1.715   .     A
S32    C35     1.717   1_566 A
S33    C28     1.717   1_544 A
C35    S32     1.717   1_544 A
C35    C15     1.463   1_545 S
C36    S41     1.715   1_565 A
C36    S42     1.718   1_655 A
C36    C18     1.466   1_655 S
C37    S39     1.690   .     A
C37    S41     1.693   .     A
C37    C38     1.357   1_645 A
C38    S40     1.693   .     A
C38    S42     1.690   .     A
C38    C37     1.357   1_465 A
S39    C43     1.718   1_655 A
S40    C43     1.715   1_565 A
S41    C36     1.715   1_545 A
S42    C36     1.718   1_455 A
C43    S39     1.718   1_455 A
C43    S40     1.715   1_545 A
C43    C11     1.466   1_455 S
