data_pcu+N205+E15
_audit_creation_date              2023-11-17
_audit_creation_method            'Materials Studio'
_symmetry_space_group_name_H-M    'P1'
_symmetry_Int_Tables_number       1
_symmetry_cell_setting            triclinic
loop_
_symmetry_equiv_pos_as_xyz
  x,y,z
_cell_length_a                    10.8085
_cell_length_b                    13.2108
_cell_length_c                    9.8946
_cell_angle_alpha                 94.5476
_cell_angle_beta                  80.5055
_cell_angle_gamma                 90.2962
loop_
_atom_site_label
_atom_site_type_symbol
_atom_site_fract_x
_atom_site_fract_y
_atom_site_fract_z
_atom_site_U_iso_or_equiv
_atom_site_adp_type
_atom_site_occupancy
Y0     Y     0.07764   0.12027  -0.01580   0.00000  Uiso   1.00
Y1     Y     0.96040   0.87108   0.97607   0.00000  Uiso   1.00
C2     C     0.76087   0.99536   0.98606   0.00000  Uiso   1.00
C3     C     1.07912  -0.02823   0.21409   0.00000  Uiso   1.00
C4     C    -0.03765   0.30210   0.00725   0.00000  Uiso   1.00
C5     C     0.32782   0.12032  -0.02008   0.00000  Uiso   1.00
C6     C     0.08179   0.97008   0.72004   0.00000  Uiso   1.00
C7     C     0.90273   0.67477   1.00778   0.00000  Uiso   1.00
O8     O     0.83370   1.00164   1.07325   0.00000  Uiso   1.00
O9     O     0.79144   0.92529  -0.10740   0.00000  Uiso   1.00
O10    O     1.03149   0.05524   0.19149   0.00000  Uiso   1.00
O11    O     1.09608   0.89916   0.12158   0.00000  Uiso   1.00
O12    O     0.05970   0.27918   0.92096   0.00000  Uiso   1.00
O13    O    -0.07664   0.23034   0.07951   0.00000  Uiso   1.00
O14    O     0.27165   0.05079  -0.07978   0.00000  Uiso   1.00
O15    O     0.25556   0.19117   1.03710   0.00000  Uiso   1.00
O16    O     0.09888   0.89665   0.78971   0.00000  Uiso   1.00
O17    O     0.03383   0.05329   0.77893   0.00000  Uiso   1.00
O18    O     0.87468   0.74511   0.10138   0.00000  Uiso   1.00
O19    O     0.95742   0.70614   0.89650   0.00000  Uiso   1.00
N20    N    -0.18591   0.43407   1.13285   0.00000  Uiso   1.00
N21    N    -0.20081   0.53340   1.13417   0.00000  Uiso   1.00
C22    C    -0.12105   0.56732   1.02833   0.00000  Uiso   1.00
C23    C     0.94764   0.48643  -0.04368   0.00000  Uiso   1.00
C24    C    -0.09539   0.40351   1.02708   0.00000  Uiso   1.00
H25    H     1.02515   0.48890  -0.12794   0.00000  Uiso   1.00
H26    H    -0.23232   0.38924   1.20744   0.00000  Uiso   1.00
H27    H    -0.26097   0.57738   1.20949   0.00000  Uiso   1.00
N28    N     0.62905   0.14633   0.08023   0.00000  Uiso   1.00
N29    N     0.51518   0.18041   0.07627   0.00000  Uiso   1.00
C30    C     0.46135   0.11662  -0.00946   0.00000  Uiso   1.00
C31    C     0.54523   1.03932   0.93548   0.00000  Uiso   1.00
C32    C     0.65018   0.06090  -0.00413   0.00000  Uiso   1.00
H33    H     0.52866   0.97278   0.86993   0.00000  Uiso   1.00
H34    H     0.68863   0.17893   0.14422   0.00000  Uiso   1.00
H35    H     0.47300   0.24310   0.13718   0.00000  Uiso   1.00
N36    N     0.17758   0.87293   0.50463   0.00000  Uiso   1.00
N37    N     0.17685   0.87338   0.37160   0.00000  Uiso   1.00
C38    C     0.11181   0.95526   0.34896   0.00000  Uiso   1.00
C39    C     1.07025   0.01054   0.47341   0.00000  Uiso   1.00
C40    C     0.11310   0.95456   0.56969   0.00000  Uiso   1.00
H41    H     1.00985   0.07698   0.49210   0.00000  Uiso   1.00
H42    H     0.21800   0.81548   0.55004   0.00000  Uiso   1.00
H43    H     0.21673   0.81636   0.29841   0.00000  Uiso   1.00
loop_
_geom_bond_atom_site_label_1
_geom_bond_atom_site_label_2
_geom_bond_distance
_geom_bond_site_symmetry_2
_ccdc_geom_bond_type
Y0     O13     2.252   .     S
Y0     O14     2.265   .     S
Y0     O10     2.265   1_455 S
Y0     O12     2.256   1_554 S
Y0     O15     2.255   1_554 S
Y0     O17     2.272   1_554 S
Y1     O8      2.259   .     S
Y1     O19     2.259   .     S
Y1     O9      2.266   1_556 S
Y1     O11     2.229   1_556 S
Y1     O16     2.222   1_655 S
Y1     O18     2.258   1_556 S
C2     O8      1.258   .     A
C2     O9      1.260   1_556 A
C2     C32     1.466   1_566 S
C3     O10     1.270   .     A
C3     O11     1.264   1_545 A
C3     C38     1.468   1_645 S
C4     O13     1.261   .     A
C4     O12     1.262   1_554 A
C4     C24     1.466   1_554 S
C5     O14     1.260   .     A
C5     C30     1.466   .     S
C5     O15     1.259   1_554 A
C6     O16     1.265   .     A
C6     C40     1.468   .     S
C6     O17     1.273   1_565 A
C7     O19     1.260   .     A
C7     O18     1.260   1_556 A
C7     C22     1.465   1_655 S
O9     Y1      2.266   1_554 S
O9     C2      1.260   1_554 A
O10    Y0      2.265   1_655 S
O11    Y1      2.229   1_554 S
O11    C3      1.264   1_565 A
O12    Y0      2.256   1_556 S
O12    C4      1.262   1_556 A
O15    Y0      2.255   1_556 S
O15    C5      1.259   1_556 A
O16    Y1      2.222   1_455 S
O17    Y0      2.272   1_556 S
O17    C6      1.273   1_545 A
O18    Y1      2.258   1_554 S
O18    C7      1.260   1_554 A
N20    N21     1.322   .     A
N20    C24     1.347   .     A
N20    H26     1.045   .     S
N21    C22     1.347   .     A
N21    H27     1.045   .     S
C22    C23     1.383   1_456 A
C22    C7      1.465   1_455 S
C23    H25     1.082   .     S
C23    C22     1.383   1_654 A
C23    C24     1.384   1_654 A
C24    C23     1.384   1_456 A
C24    C4      1.466   1_556 S
N28    N29     1.320   .     A
N28    C32     1.346   .     A
N28    H34     1.044   .     S
N29    C30     1.346   .     A
N29    H35     1.045   .     S
C30    C31     1.386   1_544 A
C31    H33     1.082   .     S
C31    C30     1.386   1_566 A
C31    C32     1.385   1_566 A
C32    C31     1.385   1_544 A
C32    C2      1.466   1_544 S
N36    N37     1.318   .     A
N36    C40     1.346   .     A
N36    H42     1.045   .     S
N37    C38     1.346   .     A
N37    H43     1.045   .     S
C38    C39     1.389   1_465 A
C38    C3      1.468   1_465 S
C39    H41     1.082   .     S
C39    C38     1.389   1_645 A
C39    C40     1.389   1_645 A
C40    C39     1.389   1_465 A
