data_pcu+N139+E8
_audit_creation_date              2023-11-17
_audit_creation_method            'Materials Studio'
_symmetry_space_group_name_H-M    'P1'
_symmetry_Int_Tables_number       1
_symmetry_cell_setting            triclinic
loop_
_symmetry_equiv_pos_as_xyz
  x,y,z
_cell_length_a                    14.8014
_cell_length_b                    11.4893
_cell_length_c                    13.8790
_cell_angle_alpha                 94.1910
_cell_angle_beta                  108.3107
_cell_angle_gamma                 30.3142
loop_
_atom_site_label
_atom_site_type_symbol
_atom_site_fract_x
_atom_site_fract_y
_atom_site_fract_z
_atom_site_U_iso_or_equiv
_atom_site_adp_type
_atom_site_occupancy
C0     C     0.18413  -0.15253   0.28724   0.00000  Uiso   1.00
Sm1    Sm    0.65029   0.32913   0.84699   0.00000  Uiso   1.00
Sm2    Sm    0.35027   0.67069   0.15324   0.00000  Uiso   1.00
C3     C     0.89577   0.28132  -0.00678   0.00000  Uiso   1.00
C4     C     0.39987   0.80452   0.07233   0.00000  Uiso   1.00
O5     O    -0.08880   1.01300   0.81009   0.00000  Uiso   1.00
O6     O     0.63543   0.38312   0.68487   0.00000  Uiso   1.00
O7     O     0.26709   0.57193   0.09758   0.00000  Uiso   1.00
O8     O     1.00145   0.90975   0.93869   0.00000  Uiso   1.00
O9     O     0.65902   0.22956  -0.01434   0.00000  Uiso   1.00
O10    O     0.57422   1.22369   0.82899   0.00000  Uiso   1.00
O11    O     1.08927  -0.01310   0.19008   0.00000  Uiso   1.00
O12    O     0.36504   0.61678   0.31535   0.00000  Uiso   1.00
O13    O     0.73345   0.42787   0.90266   0.00000  Uiso   1.00
O14    O    -0.00089   0.09006   0.06156   0.00000  Uiso   1.00
O15    O     0.34109   0.77080   1.01448   0.00000  Uiso   1.00
O16    O     0.42621  -0.22372   0.17121   0.00000  Uiso   1.00
C17    C     0.81627   1.15247   0.71292   0.00000  Uiso   1.00
C18    C     0.10473   0.71856   1.00703   0.00000  Uiso   1.00
C19    C     0.60036   0.19569   0.92783   0.00000  Uiso   1.00
C20    C     0.04054   0.48329   1.05382   0.00000  Uiso   1.00
C21    C     0.95978   0.51683  -0.05351   0.00000  Uiso   1.00
N22    N     0.92671   0.61661  -0.13946   0.00000  Uiso   1.00
C23    C     0.96929   0.68648  -0.12315   0.00000  Uiso   1.00
C24    C     1.04630   0.65809  -0.01606   0.00000  Uiso   1.00
N25    N     0.08312   0.55289   1.07022   0.00000  Uiso   1.00
N26    N     0.07332   0.38383   1.13974   0.00000  Uiso   1.00
C27    C     0.03056   0.31419   1.12338   0.00000  Uiso   1.00
C28    C    -0.04619   0.34228   0.01632   0.00000  Uiso   1.00
N29    N     0.91716   0.44728  -0.06992   0.00000  Uiso   1.00
H30    H     0.94758   0.75748  -0.19257   0.00000  Uiso   1.00
H31    H     0.05176   0.24376   1.19271   0.00000  Uiso   1.00
C32    C     0.53123   0.96477   0.05679   0.00000  Uiso   1.00
C33    C     0.46837   0.03622   0.94325   0.00000  Uiso   1.00
N34    N     0.38736   0.02717   0.87445   0.00000  Uiso   1.00
C35    C     0.36652  -0.05053   0.91412   0.00000  Uiso   1.00
C36    C     0.42841  -0.12111   1.02765   0.00000  Uiso   1.00
N37    N     0.50956   0.88835   0.09632   0.00000  Uiso   1.00
N38    N     0.61237   0.97364   0.12560   0.00000  Uiso   1.00
C39    C     0.63365   1.05079   0.08600   0.00000  Uiso   1.00
C40    C     0.57149   1.12172  -0.02756   0.00000  Uiso   1.00
N41    N     0.49004   0.11264   0.90372   0.00000  Uiso   1.00
H42    H     0.29950  -0.05351   0.85717   0.00000  Uiso   1.00
H43    H     0.70130   1.05298   0.14304   0.00000  Uiso   1.00
C44    C     0.09199   0.86968   0.51315   0.00000  Uiso   1.00
C45    C     0.90825   0.13031   0.48691   0.00000  Uiso   1.00
N46    N     0.82053   0.29205   0.39735   0.00000  Uiso   1.00
C47    C     0.90756   0.20505   0.33233   0.00000  Uiso   1.00
C48    C     1.09082  -0.05531   0.35810   0.00000  Uiso   1.00
N49    N     0.17957   0.78250   0.44856   0.00000  Uiso   1.00
N50    N     0.17964   0.70800   0.60269   0.00000  Uiso   1.00
C51    C     0.09231   0.79512   0.66756   0.00000  Uiso   1.00
C52    C    -0.09072   1.05537   0.64191   0.00000  Uiso   1.00
N53    N     0.82107   0.21727   0.55171   0.00000  Uiso   1.00
H54    H     0.83658   0.33667   0.26214   0.00000  Uiso   1.00
H55    H     0.16391   0.66315   0.73804   0.00000  Uiso   1.00
loop_
_geom_bond_atom_site_label_1
_geom_bond_atom_site_label_2
_geom_bond_distance
_geom_bond_site_symmetry_2
_ccdc_geom_bond_type
C0     O11     1.264   1_455 A
C0     O12     1.260   1_545 A
C0     C48     1.467   1_455 S
Sm1    O6      2.270   .     S
Sm1    O13     2.255   .     S
Sm1    O5      2.263   1_645 S
Sm1    O8      2.313   1_545 S
Sm1    O9      2.223   1_556 S
Sm1    O10     2.221   1_545 S
Sm2    O7      2.255   .     S
Sm2    O12     2.270   .     S
Sm2    O11     2.263   1_465 S
Sm2    O14     2.313   1_565 S
Sm2    O15     2.223   1_554 S
Sm2    O16     2.221   1_565 S
C3     O13     1.271   1_554 A
C3     O14     1.288   1_655 A
C3     C28     1.471   1_655 S
C4     O15     1.284   1_554 A
C4     O16     1.285   1_565 A
C4     C36     1.469   1_564 S
O5     Sm1     2.263   1_465 S
O5     C17     1.264   1_455 A
O6     C17     1.260   1_545 A
O7     C18     1.271   1_554 A
O8     Sm1     2.313   1_565 S
O8     C18     1.287   1_655 A
O9     Sm1     2.223   1_554 S
O9     C19     1.284   1_554 A
O10    Sm1     2.221   1_565 S
O10    C19     1.285   1_565 A
O11    C0      1.264   1_655 A
O11    Sm2     2.263   1_645 S
O12    C0      1.260   1_565 A
O13    C3      1.271   1_556 A
O14    Sm2     2.313   1_545 S
O14    C3      1.288   1_455 A
O15    Sm2     2.223   1_556 S
O15    C4      1.284   1_556 A
O16    Sm2     2.221   1_545 S
O16    C4      1.285   1_545 A
C17    O5      1.264   1_655 A
C17    O6      1.260   1_565 A
C17    C52     1.467   1_655 S
C18    O7      1.271   1_556 A
C18    O8      1.287   1_455 A
C18    C24     1.471   1_456 S
C19    O9      1.284   1_556 A
C19    O10     1.285   1_545 A
C19    C40     1.469   1_546 S
C20    N25     1.357   .     A
C20    N26     1.357   .     A
C20    C21     1.402   1_456 A
C21    N22     1.357   .     A
C21    N29     1.357   .     A
C21    C20     1.402   1_654 A
N22    C23     1.360   .     A
C23    C24     1.407   .     A
C23    H30     1.079   .     S
C24    N25     1.362   1_654 A
C24    C18     1.471   1_654 S
N25    C24     1.362   1_456 A
N26    C27     1.360   .     A
C27    H31     1.079   .     S
C27    C28     1.407   1_556 A
C28    C27     1.407   1_554 A
C28    N29     1.362   1_455 A
C28    C3      1.471   1_455 S
N29    C28     1.362   1_655 A
C32    N37     1.357   .     A
C32    N38     1.357   .     A
C32    C33     1.404   1_564 A
C33    N34     1.357   .     A
C33    N41     1.357   .     A
C33    C32     1.404   1_546 A
N34    C35     1.360   .     A
C35    C36     1.406   .     A
C35    H42     1.083   .     S
C36    N37     1.361   1_546 A
C36    C4      1.469   1_546 S
N37    C36     1.361   1_564 A
N38    C39     1.360   .     A
C39    C40     1.406   .     A
C39    H43     1.083   .     S
C40    N41     1.362   1_564 A
C40    C19     1.469   1_564 S
N41    C40     1.362   1_546 A
C44    N49     1.358   .     A
C44    N50     1.357   .     A
C44    C45     1.404   1_465 A
C45    N46     1.357   .     A
C45    N53     1.358   .     A
C45    C44     1.404   1_645 A
N46    C47     1.360   .     A
C47    C48     1.404   .     A
C47    H54     1.081   .     S
C48    N49     1.361   1_645 A
C48    C0      1.467   1_655 S
N49    C48     1.361   1_465 A
N50    C51     1.360   .     A
C51    C52     1.404   .     A
C51    H55     1.082   .     S
C52    N53     1.361   1_465 A
C52    C17     1.467   1_455 S
N53    C52     1.361   1_645 A
