data_pcu+N248+E191
_audit_creation_date              2023-11-17
_audit_creation_method            'Materials Studio'
_symmetry_space_group_name_H-M    'P1'
_symmetry_Int_Tables_number       1
_symmetry_cell_setting            triclinic
loop_
_symmetry_equiv_pos_as_xyz
  x,y,z
_cell_length_a                    17.7442
_cell_length_b                    16.3895
_cell_length_c                    20.1553
_cell_angle_alpha                 81.0257
_cell_angle_beta                  90.3908
_cell_angle_gamma                 70.9446
loop_
_atom_site_label
_atom_site_type_symbol
_atom_site_fract_x
_atom_site_fract_y
_atom_site_fract_z
_atom_site_U_iso_or_equiv
_atom_site_adp_type
_atom_site_occupancy
O0     O     0.89031   0.99097   0.94578   0.00000  Uiso   1.00
Yb1    Yb    1.01750  -0.01325   0.07999   0.00000  Uiso   1.00
C2     C     1.01762   0.99190   0.20391   0.00000  Uiso   1.00
Yb3    Yb    0.01401   0.98437   0.93471   0.00000  Uiso   1.00
O4     O     0.89021  -0.00492   0.06033   0.00000  Uiso   1.00
C5     C     0.97637   0.14528   0.94222   0.00000  Uiso   1.00
C6     C     0.85365  -0.00112   0.00180   0.00000  Uiso   1.00
O7     O     0.98916   0.06006   0.83521   0.00000  Uiso   1.00
C8     C     0.01422  -0.00930   0.80839   0.00000  Uiso   1.00
O9     O     0.95657   0.88990   0.08884   0.00000  Uiso   1.00
O10    O     0.05235   0.88206   1.02107   0.00000  Uiso   1.00
O11    O     0.13221   0.00220   0.06230   0.00000  Uiso   1.00
O12    O     0.03934   0.91895   0.85011   0.00000  Uiso   1.00
O13    O     0.13391   0.98905   0.95012   0.00000  Uiso   1.00
C14    C    -0.00296   0.84633   0.04943   0.00000  Uiso   1.00
C15    C     0.16668   0.99835   1.00540   0.00000  Uiso   1.00
O16    O     0.05071   0.92120   0.18054   0.00000  Uiso   1.00
O17    O     0.98460   0.06008   0.15969   0.00000  Uiso   1.00
O18    O    -0.01356   0.12052   0.88744   0.00000  Uiso   1.00
O19    O     0.97048   0.08038  -0.00726   0.00000  Uiso   1.00
Ni20   Ni   -0.03376   0.50603  -0.01100   0.00000  Uiso   1.00
C21    C     0.98673   0.76599   0.03308   0.00000  Uiso   1.00
C22    C     0.92908   0.73338   0.06341   0.00000  Uiso   1.00
C23    C     0.92262   0.65538   0.04845   0.00000  Uiso   1.00
C24    C     0.02706   0.64271   0.97381   0.00000  Uiso   1.00
C25    C     0.03558   0.72033   0.98732   0.00000  Uiso   1.00
H26    H     0.95122   0.21103   0.05911   0.00000  Uiso   1.00
H27    H    -0.01667   0.28187   0.84821   0.00000  Uiso   1.00
H28    H    -0.02156   0.42788   0.86963   0.00000  Uiso   1.00
H29    H     0.94714   0.35846   0.07594   0.00000  Uiso   1.00
N30    N    -0.03789   0.39979   0.97355   0.00000  Uiso   1.00
N31    N     0.97167   0.61169   0.00467   0.00000  Uiso   1.00
H32    H     0.89014   0.76725   0.09876   0.00000  Uiso   1.00
H33    H     0.87921   0.62898   0.07233   0.00000  Uiso   1.00
H34    H     0.06532   0.60638   0.93933   0.00000  Uiso   1.00
H35    H     0.08046   0.74383   0.96280   0.00000  Uiso   1.00
C36    C    -0.03261   0.23500   0.95216   0.00000  Uiso   1.00
C37    C    -0.02576   0.29739   0.89848   0.00000  Uiso   1.00
C38    C    -0.02854   0.38000   0.91041   0.00000  Uiso   1.00
C39    C     0.95386   0.34107   0.02618   0.00000  Uiso   1.00
C40    C     0.95628   0.25772   0.01651   0.00000  Uiso   1.00
Ni41   Ni    0.50628   0.01160   0.00040   0.00000  Uiso   1.00
C42    C     0.24827   0.00426   0.00353   0.00000  Uiso   1.00
C43    C     0.28661   0.01451   0.06141   0.00000  Uiso   1.00
C44    C     0.36426   0.01768   0.05902   0.00000  Uiso   1.00
C45    C     0.36710   1.00187   0.94408   0.00000  Uiso   1.00
C46    C     0.28946   0.99843   0.94415   0.00000  Uiso   1.00
H47    H     0.75719   0.00660   0.10804   0.00000  Uiso   1.00
H48    H     0.75589   1.00530   0.89349   0.00000  Uiso   1.00
H49    H     0.61551   1.01051   0.89540   0.00000  Uiso   1.00
H50    H     0.61687   0.01184   0.10484   0.00000  Uiso   1.00
N51    N     0.61000   1.01156   1.00009   0.00000  Uiso   1.00
N52    N     0.40277   0.01097   0.00104   0.00000  Uiso   1.00
H53    H     0.25727   0.01939   0.10827   0.00000  Uiso   1.00
H54    H     0.39428   0.02473   0.10359   0.00000  Uiso   1.00
H55    H     0.39933   0.99655   0.89871   0.00000  Uiso   1.00
H56    H     0.26236   0.99053   0.89833   0.00000  Uiso   1.00
C57    C     0.76836   1.00547   1.00083   0.00000  Uiso   1.00
C58    C     0.72699   1.00712   0.94064   0.00000  Uiso   1.00
C59    C     0.64740   1.01013   0.94145   0.00000  Uiso   1.00
C60    C     0.64816   0.01090   0.05894   0.00000  Uiso   1.00
C61    C     0.72772   0.00792   0.06048   0.00000  Uiso   1.00
Ni62   Ni    0.01484  -0.00238   0.50537   0.00000  Uiso   1.00
C63    C     1.01731   0.99418   0.27684   0.00000  Uiso   1.00
C64    C     1.05259   0.91712   0.32327   0.00000  Uiso   1.00
C65    C     1.05116   0.92015   0.39208   0.00000  Uiso   1.00
C66    C    -0.01878   0.07291   0.37036   0.00000  Uiso   1.00
C67    C    -0.01866   0.07291   0.30098   0.00000  Uiso   1.00
H68    H     1.06541   0.85228   0.74108   0.00000  Uiso   1.00
H69    H    -0.03683   0.13459   0.70898   0.00000  Uiso   1.00
H70    H    -0.03586   0.13461   0.58630   0.00000  Uiso   1.00
H71    H     1.06422   0.85863   0.61800   0.00000  Uiso   1.00
N72    N     0.01436  -0.00327   0.59678   0.00000  Uiso   1.00
N73    N     1.01581   0.99718   0.41413   0.00000  Uiso   1.00
H74    H     1.08083   0.85510   0.30663   0.00000  Uiso   1.00
H75    H     1.07806   0.86095   0.42816   0.00000  Uiso   1.00
H76    H    -0.04653   0.13323   0.38941   0.00000  Uiso   1.00
H77    H    -0.04641   0.13369   0.26668   0.00000  Uiso   1.00
C78    C     0.01434  -0.00681   0.73488   0.00000  Uiso   1.00
C79    C    -0.01428   0.07310   0.69038   0.00000  Uiso   1.00
C80    C    -0.01378   0.07336   0.62096   0.00000  Uiso   1.00
C81    C     1.04232   0.91851   0.63877   0.00000  Uiso   1.00
C82    C     1.04290   0.91520   0.70838   0.00000  Uiso   1.00
loop_
_geom_bond_atom_site_label_1
_geom_bond_atom_site_label_2
_geom_bond_distance
_geom_bond_site_symmetry_2
_ccdc_geom_bond_type
O0     C6      1.310   1_566 A
O0     Yb3     2.177   1_655 S
Yb1    O4      2.247   .     S
Yb1    O17     2.127   .     S
Yb1    O19     2.108   .     S
Yb1    Yb3     2.935   1_644 S
Yb1    O9      2.181   1_545 S
Yb1    O10     2.165   1_644 S
Yb1    O11     2.157   1_655 S
Yb1    O16     2.121   1_645 S
C2     C63     1.476   .     S
C2     O16     1.280   1_655 A
C2     O17     1.281   1_565 A
Yb3    O10     2.153   .     S
Yb3    O12     2.127   .     S
Yb3    O13     2.176   .     S
Yb3    O0      2.177   1_455 S
Yb3    Yb1     2.935   1_466 S
Yb3    O7      2.147   1_465 S
Yb3    O18     2.178   1_565 S
Yb3    O19     2.058   1_466 S
O4     C6      1.325   .     A
C5     O18     1.229   1_655 D
C5     O19     1.384   1_556 S
C5     C36     1.472   1_655 S
C6     O0      1.310   1_544 A
C6     C57     1.481   1_544 S
O7     Yb3     2.147   1_645 S
O7     C8      1.283   1_655 A
C8     C78     1.476   .     S
C8     O7      1.283   1_455 A
C8     O12     1.278   1_545 A
O9     Yb1     2.181   1_565 S
O9     C14     1.227   1_655 D
O10    Yb1     2.165   1_466 S
O10    C14     1.382   1_556 S
O11    Yb1     2.157   1_455 S
O11    C15     1.304   1_544 A
O12    C8      1.278   1_565 A
O13    C15     1.306   .     A
C14    O9      1.227   1_455 D
C14    O10     1.382   1_554 S
C14    C21     1.472   1_455 S
C15    O11     1.304   1_566 A
C15    C42     1.483   1_566 S
O16    Yb1     2.121   1_465 S
O16    C2      1.280   1_455 A
O17    C2      1.281   1_545 A
O18    Yb3     2.178   1_545 S
O18    C5      1.229   1_455 D
O19    Yb3     2.058   1_644 S
O19    C5      1.384   1_554 S
Ni20   N30     1.840   1_554 S
Ni20   N31     1.840   1_455 S
C21    C22     1.403   .     A
C21    C25     1.402   1_654 A
C21    C14     1.472   1_655 S
C22    C23     1.398   .     A
C22    H32     1.083   .     S
C23    N31     1.360   .     A
C23    H33     1.082   .     S
C24    C25     1.396   .     A
C24    H34     1.082   .     S
C24    N31     1.359   1_456 A
C25    H35     1.083   .     S
C25    C21     1.402   1_456 A
H26    C40     1.083   .     S
H27    C37     1.083   .     S
H28    C38     1.082   .     S
H29    C39     1.082   .     S
N30    C38     1.360   .     A
N30    Ni20    1.840   1_556 S
N30    C39     1.359   1_456 A
N31    Ni20    1.840   1_655 S
N31    C24     1.359   1_654 A
C36    C37     1.403   .     A
C36    C40     1.402   1_456 A
C36    C5      1.472   1_455 S
C37    C38     1.397   .     A
C39    C40     1.397   .     A
C39    N30     1.359   1_654 A
C40    C36     1.402   1_654 A
Ni41   N52     1.840   .     S
Ni41   N51     1.840   1_544 S
C42    C43     1.406   .     A
C42    C46     1.406   1_544 A
C42    C15     1.483   1_544 S
C43    C44     1.397   .     A
C43    H53     1.083   .     S
C44    N52     1.359   .     A
C44    H54     1.082   .     S
C45    C46     1.397   .     A
C45    H55     1.082   .     S
C45    N52     1.359   1_566 A
C46    H56     1.083   .     S
C46    C42     1.406   1_566 A
H47    C61     1.083   .     S
H48    C58     1.083   .     S
H49    C59     1.082   .     S
H50    C60     1.082   .     S
N51    C59     1.359   .     A
N51    Ni41    1.840   1_566 S
N51    C60     1.359   1_566 A
N52    C45     1.359   1_544 A
C57    C58     1.406   .     A
C57    C61     1.405   1_566 A
C57    C6      1.481   1_566 S
C58    C59     1.397   .     A
C60    C61     1.396   .     A
C60    N51     1.359   1_544 A
C61    C57     1.405   1_544 A
Ni62   N72     1.840   .     S
Ni62   N73     1.840   1_445 S
C63    C64     1.404   .     A
C63    C67     1.404   1_665 A
C64    C65     1.396   .     A
C64    H74     1.083   .     S
C65    N73     1.359   .     A
C65    H75     1.082   .     S
C66    C67     1.398   .     A
C66    H76     1.082   .     S
C66    N73     1.360   1_445 A
C67    H77     1.083   .     S
C67    C63     1.404   1_445 A
H68    C82     1.083   .     S
H69    C79     1.083   .     S
H70    C80     1.082   .     S
H71    C81     1.082   .     S
N72    C80     1.360   .     A
N72    C81     1.359   1_445 A
N73    Ni62    1.840   1_665 S
N73    C66     1.360   1_665 A
C78    C79     1.404   .     A
C78    C82     1.403   1_445 A
C79    C80     1.398   .     A
C81    C82     1.396   .     A
C81    N72     1.359   1_665 A
C82    C78     1.403   1_665 A
