data_pcu+N155+E225
_audit_creation_date              2023-11-17
_audit_creation_method            'Materials Studio'
_symmetry_space_group_name_H-M    'P1'
_symmetry_Int_Tables_number       1
_symmetry_cell_setting            triclinic
loop_
_symmetry_equiv_pos_as_xyz
  x,y,z
_cell_length_a                    18.5887
_cell_length_b                    19.8825
_cell_length_c                    22.5116
_cell_angle_alpha                 83.1357
_cell_angle_beta                  110.0124
_cell_angle_gamma                 108.7497
loop_
_atom_site_label
_atom_site_type_symbol
_atom_site_fract_x
_atom_site_fract_y
_atom_site_fract_z
_atom_site_U_iso_or_equiv
_atom_site_adp_type
_atom_site_occupancy
C0     C     0.02498   0.00273   0.19171   0.00000  Uiso   1.00
Ho1    Ho    0.00888   0.00285   0.07288   0.00000  Uiso   1.00
C2     C     0.97651   1.00067   0.81232   0.00000  Uiso   1.00
Ho3    Ho    0.99268   1.00055   0.93116   0.00000  Uiso   1.00
O4     O     0.08178   0.03546   0.16933   0.00000  Uiso   1.00
O5     O     0.95959  -0.02999   0.15014   0.00000  Uiso   1.00
O6     O     0.12016  -0.02604   0.08650   0.00000  Uiso   1.00
O7     O     0.08659   1.04711   1.01575   0.00000  Uiso   1.00
C8     C     0.13970   0.00999   1.04435   0.00000  Uiso   1.00
C9     C     0.86183   0.99328  -0.04028   0.00000  Uiso   1.00
O10    O     0.01661   0.89417   0.06601   0.00000  Uiso   1.00
O11    O     1.00498   0.89313   0.96009   0.00000  Uiso   1.00
O12    O     0.91973   0.96795   0.83471   0.00000  Uiso   1.00
O13    O     0.04191   1.03340   0.85386   0.00000  Uiso   1.00
O14    O     0.88131   1.02932   0.91756   0.00000  Uiso   1.00
O15    O     0.91501  -0.04376  -0.01168   0.00000  Uiso   1.00
O16    O     0.98498   0.10922   0.93805   0.00000  Uiso   1.00
O17    O    -0.00358   0.11023   0.04393   0.00000  Uiso   1.00
C18    C     0.98937   0.14028   0.98808   0.00000  Uiso   1.00
C19    C     0.01211   0.86309   0.01595   0.00000  Uiso   1.00
C20    C     0.01824   0.78977   1.02380   0.00000  Uiso   1.00
C21    C     0.01620   0.75422   0.97256   0.00000  Uiso   1.00
C22    C     0.02243   0.68530   0.98007   0.00000  Uiso   1.00
C23    C     1.02956   0.64992   0.03894   0.00000  Uiso   1.00
C24    C     1.03358   0.68591   0.09025   0.00000  Uiso   1.00
C25    C     1.02738   0.75484   0.08286   0.00000  Uiso   1.00
C26    C     0.99458   0.53323   0.99971   0.00000  Uiso   1.00
H27    H     0.98867   0.22293   0.07686   0.00000  Uiso   1.00
H28    H     0.97615   0.34251   0.06314   0.00000  Uiso   1.00
H29    H    -0.03750   0.34388   0.86808   0.00000  Uiso   1.00
H30    H    -0.02640   0.22322   0.88083   0.00000  Uiso   1.00
H31    H     1.05184   0.45775   0.04570   0.00000  Uiso   1.00
O32    O    -0.03717   0.42181   0.95418   0.00000  Uiso   1.00
O33    O     1.03839   0.58145   0.04957   0.00000  Uiso   1.00
C34    C     0.98320   0.21359  -0.01983   0.00000  Uiso   1.00
C35    C     0.98399   0.24880   0.03113   0.00000  Uiso   1.00
C36    C     0.97774   0.31772   0.02353   0.00000  Uiso   1.00
C37    C     0.97175   0.35339   0.96488   0.00000  Uiso   1.00
C38    C    -0.03099   0.31776   0.91383   0.00000  Uiso   1.00
C39    C    -0.02473   0.24885   0.92131   0.00000  Uiso   1.00
C40    C     1.00650   0.46995   1.00411   0.00000  Uiso   1.00
H41    H     0.02305   0.66031   0.94018   0.00000  Uiso   1.00
H42    H     1.04096   0.66002   0.13615   0.00000  Uiso   1.00
H43    H     0.01052   0.77982   0.92664   0.00000  Uiso   1.00
H44    H    -0.05079   0.54539   0.95812   0.00000  Uiso   1.00
H45    H     1.03004   0.78075   0.12356   0.00000  Uiso   1.00
C46    C     0.20895   1.01175   1.02584   0.00000  Uiso   1.00
C47    C     0.25620   0.96705   1.05585   0.00000  Uiso   1.00
C48    C     0.32082   0.96780   1.03712   0.00000  Uiso   1.00
C49    C     0.33990   0.01418  -0.01150   0.00000  Uiso   1.00
C50    C     0.29145   0.05749  -0.04215   0.00000  Uiso   1.00
C51    C     0.22691   0.05684  -0.02339   0.00000  Uiso   1.00
C52    C     0.47188   1.00506   0.01148   0.00000  Uiso   1.00
H53    H     0.75938   0.07281  -0.08861   0.00000  Uiso   1.00
H54    H     0.64730   0.07238  -0.05505   0.00000  Uiso   1.00
H55    H     0.69698   0.91034   0.08432   0.00000  Uiso   1.00
H56    H     0.81040   0.91141   0.05130   0.00000  Uiso   1.00
H57    H     0.52056  -0.00199  -0.05764   0.00000  Uiso   1.00
O58    O     0.59928   0.98769   0.03803   0.00000  Uiso   1.00
O59    O     0.40225   0.01523  -0.03381   0.00000  Uiso   1.00
C60    C     0.79256  -0.00857  -0.02174   0.00000  Uiso   1.00
C61    C     0.74550   0.03636  -0.05147   0.00000  Uiso   1.00
C62    C     0.68093   0.03556  -0.03268   0.00000  Uiso   1.00
C63    C     0.66165   0.98884   0.01571   0.00000  Uiso   1.00
C64    C     0.70987   0.94527   0.04607   0.00000  Uiso   1.00
C65    C     0.77443   0.94603   0.02729   0.00000  Uiso   1.00
C66    C     0.52966  -0.00213  -0.00727   0.00000  Uiso   1.00
H67    H     0.35456   0.93112   1.05971   0.00000  Uiso   1.00
H68    H     0.30422   0.09219  -0.08056   0.00000  Uiso   1.00
H69    H     0.24246   0.93083   1.09316   0.00000  Uiso   1.00
H70    H     0.48101   1.00494   0.06186   0.00000  Uiso   1.00
H71    H     0.19080   0.09129  -0.04761   0.00000  Uiso   1.00
C72    C     1.03400   0.00279   0.25944   0.00000  Uiso   1.00
C73    C     0.96947  -0.03439   0.28124   0.00000  Uiso   1.00
C74    C     0.97791  -0.03416   0.34536   0.00000  Uiso   1.00
C75    C     0.05098   1.00431   0.38879   0.00000  Uiso   1.00
C76    C     0.11570   1.03989   0.36709   0.00000  Uiso   1.00
C77    C     0.10732   1.03970   0.30298   0.00000  Uiso   1.00
C78    C    -0.00193   0.00507   0.47160   0.00000  Uiso   1.00
H79    H     0.08859   1.06805   0.75510   0.00000  Uiso   1.00
H80    H     0.07322   1.06894   0.64286   0.00000  Uiso   1.00
H81    H     0.82895  -0.06572   0.60406   0.00000  Uiso   1.00
H82    H     0.84349  -0.06564   0.71665   0.00000  Uiso   1.00
H83    H     0.05750   0.99050   0.56709   0.00000  Uiso   1.00
O84    O    -0.06214  -0.00134   0.55004   0.00000  Uiso   1.00
O85    O     0.06349   1.00474   0.45398   0.00000  Uiso   1.00
C86    C    -0.03255   1.00059   0.74458   0.00000  Uiso   1.00
C87    C     0.03181   1.03813   0.72270   0.00000  Uiso   1.00
C88    C     0.02331   1.03789   0.65857   0.00000  Uiso   1.00
C89    C    -0.04959  -0.00099   0.61524   0.00000  Uiso   1.00
C90    C     0.88587  -0.03695   0.63702   0.00000  Uiso   1.00
C91    C     0.89428  -0.03673   0.70113   0.00000  Uiso   1.00
C92    C     0.00327   0.99833   0.53242   0.00000  Uiso   1.00
H93    H     0.92785  -0.06496   0.36097   0.00000  Uiso   1.00
H94    H     0.17272   1.06838   0.40010   0.00000  Uiso   1.00
H95    H     0.91258  -0.06403   0.24877   0.00000  Uiso   1.00
H96    H     0.94389   0.01301   0.43695   0.00000  Uiso   1.00
H97    H     0.15824   1.06834   0.28753   0.00000  Uiso   1.00
loop_
_geom_bond_atom_site_label_1
_geom_bond_atom_site_label_2
_geom_bond_distance
_geom_bond_site_symmetry_2
_ccdc_geom_bond_type
C0     O4      1.279   .     A
C0     O5      1.279   1_455 A
C0     C72     1.476   1_455 S
Ho1    O4      2.175   .     S
Ho1    O6      2.234   .     S
Ho1    O17     2.218   .     S
Ho1    O5      2.174   1_455 S
Ho1    O7      2.168   1_544 S
Ho1    O10     2.238   1_545 S
Ho1    O15     2.153   1_455 S
C2     O12     1.279   .     A
C2     O13     1.279   1_655 A
C2     C86     1.476   1_655 S
Ho3    O11     2.218   .     S
Ho3    O12     2.175   .     S
Ho3    O14     2.234   .     S
Ho3    O7      2.153   1_655 S
Ho3    O13     2.174   1_655 S
Ho3    O15     2.168   1_566 S
Ho3    O16     2.238   1_565 S
O5     C0      1.279   1_655 A
O5     Ho1     2.174   1_655 S
O6     C8      1.205   1_554 D
O7     Ho1     2.168   1_566 S
O7     Ho3     2.153   1_455 S
O7     C8      1.362   1_565 S
C8     O6      1.205   1_556 D
C8     O7      1.362   1_545 S
C8     C46     1.472   1_545 S
C9     O14     1.205   1_554 D
C9     O15     1.361   1_565 S
C9     C60     1.472   1_565 S
O10    C19     1.315   .     A
O10    Ho1     2.238   1_565 S
O11    C19     1.309   1_656 A
O13    C2      1.279   1_455 A
O13    Ho3     2.174   1_455 S
O14    C9      1.205   1_556 D
O15    Ho1     2.153   1_655 S
O15    Ho3     2.168   1_544 S
O15    C9      1.361   1_545 S
O16    C18     1.314   .     A
O16    Ho3     2.238   1_545 S
O17    C18     1.309   1_454 A
C18    O17     1.309   1_656 A
C18    C34     1.483   1_556 S
C19    O11     1.309   1_454 A
C19    C20     1.483   1_554 S
C20    C21     1.407   .     A
C20    C25     1.407   1_456 A
C20    C19     1.483   1_556 S
C21    C22     1.398   .     A
C21    H43     1.083   .     S
C22    H41     1.082   .     S
C22    C23     1.409   1_456 A
C23    C24     1.399   .     A
C23    O33     1.406   .     S
C23    C22     1.409   1_654 A
C24    C25     1.398   .     A
C24    H42     1.083   .     S
C25    H45     1.083   .     S
C25    C20     1.407   1_654 A
C26    C40     1.333   .     D
C26    O33     1.404   1_556 S
C26    H44     1.088   1_655 S
H27    C35     1.083   .     S
H28    C36     1.082   .     S
H29    C38     1.083   .     S
H30    C39     1.083   .     S
H31    C40     1.088   1_554 S
O32    C37     1.406   1_455 S
O32    C40     1.404   1_455 S
O33    C26     1.404   1_554 S
C34    C35     1.407   .     A
C34    C39     1.407   1_654 A
C34    C18     1.483   1_554 S
C35    C36     1.398   .     A
C36    C37     1.409   1_554 A
C37    O32     1.406   1_655 S
C37    C36     1.409   1_556 A
C37    C38     1.399   1_655 A
C38    C39     1.398   .     A
C38    C37     1.399   1_455 A
C39    C34     1.407   1_456 A
C40    H31     1.088   1_556 S
C40    O32     1.404   1_655 S
H44    C26     1.088   1_455 S
C46    C47     1.404   .     A
C46    C51     1.402   1_566 A
C46    C8      1.472   1_565 S
C47    C48     1.398   .     A
C47    H69     1.083   .     S
C48    H67     1.082   .     S
C48    C49     1.410   1_566 A
C49    C50     1.400   .     A
C49    O59     1.406   .     S
C49    C48     1.410   1_544 A
C50    C51     1.398   .     A
C50    H68     1.083   .     S
C51    H71     1.083   .     S
C51    C46     1.402   1_544 A
C52    H70     1.088   .     S
C52    O59     1.404   1_565 S
C52    C66     1.332   1_565 D
H53    C61     1.083   .     S
H54    C62     1.082   .     S
H55    C64     1.083   .     S
H56    C65     1.083   .     S
H57    C66     1.088   .     S
O58    C63     1.406   .     S
O58    C66     1.404   1_565 S
O59    C52     1.404   1_545 S
C60    C61     1.404   .     A
C60    C65     1.403   1_545 A
C60    C9      1.472   1_545 S
C61    C62     1.398   .     A
C62    C63     1.410   1_545 A
C63    C64     1.400   .     A
C63    C62     1.410   1_565 A
C64    C65     1.398   .     A
C65    C60     1.403   1_565 A
C66    C52     1.332   1_545 D
C66    O58     1.404   1_545 S
C72    C73     1.404   .     A
C72    C77     1.404   1_645 A
C72    C0      1.476   1_655 S
C73    C74     1.398   .     A
C73    H95     1.083   .     S
C74    H93     1.082   .     S
C74    C75     1.410   1_645 A
C75    C76     1.400   .     A
C75    O85     1.406   .     S
C75    C74     1.410   1_465 A
C76    C77     1.398   .     A
C76    H94     1.083   .     S
C77    H97     1.083   .     S
C77    C72     1.404   1_465 A
C78    O85     1.404   1_545 S
C78    C92     1.333   1_545 D
C78    H96     1.088   1_455 S
H79    C87     1.083   .     S
H80    C88     1.082   .     S
H81    C90     1.083   .     S
H82    C91     1.083   .     S
H83    C92     1.087   .     S
O84    C89     1.406   .     S
O84    C92     1.404   1_545 S
O85    C78     1.404   1_565 S
C86    C87     1.404   .     A
C86    C91     1.404   1_465 A
C86    C2      1.476   1_455 S
C87    C88     1.398   .     A
C88    C89     1.410   1_565 A
C89    C88     1.410   1_545 A
C89    C90     1.399   1_455 A
C90    C91     1.398   .     A
C90    C89     1.399   1_655 A
C91    C86     1.404   1_645 A
C92    C78     1.333   1_565 D
C92    O84     1.404   1_565 S
H96    C78     1.088   1_655 S
