data_pcu+N106+E191
_audit_creation_date              2023-11-17
_audit_creation_method            'Materials Studio'
_symmetry_space_group_name_H-M    'P1'
_symmetry_Int_Tables_number       1
_symmetry_cell_setting            triclinic
loop_
_symmetry_equiv_pos_as_xyz
  x,y,z
_cell_length_a                    20.7276
_cell_length_b                    17.7777
_cell_length_c                    16.3600
_cell_angle_alpha                 105.1502
_cell_angle_beta                  63.3636
_cell_angle_gamma                 93.3718
loop_
_atom_site_label
_atom_site_type_symbol
_atom_site_fract_x
_atom_site_fract_y
_atom_site_fract_z
_atom_site_U_iso_or_equiv
_atom_site_adp_type
_atom_site_occupancy
Y0     Y     0.91807  -0.00261   0.01635   0.00000  Uiso   1.00
Y1     Y     0.08216   1.00274   0.98382   0.00000  Uiso   1.00
O2     O     0.95156   0.11595  -0.00988   0.00000  Uiso   1.00
O3     O     1.02704  -0.04782   0.89211   0.00000  Uiso   1.00
C4     C     0.21078   1.00228   0.98820   0.00000  Uiso   1.00
O5     O     0.10959   1.03028   0.84420   0.00000  Uiso   1.00
O6     O     0.79921   0.03449   0.08245   0.00000  Uiso   1.00
O7     O     0.84623  -0.03893   0.94418   0.00000  Uiso   1.00
O8     O     0.04965   0.12991   1.01690   0.00000  Uiso   1.00
O9     O    -0.02683   1.04796   0.10808   0.00000  Uiso   1.00
O10    O     0.89072  -0.03026   0.15589   0.00000  Uiso   1.00
O11    O     0.95063   0.87021  -0.01689   0.00000  Uiso   1.00
C12    C     0.00049   0.15771   1.00340   0.00000  Uiso   1.00
O13    O     0.04864   0.88419   1.01007   0.00000  Uiso   1.00
C14    C     0.06325   0.99463   0.82773   0.00000  Uiso   1.00
O15    O     0.20095   0.96552   0.91796   0.00000  Uiso   1.00
O16    O     0.15394   1.03921   0.05606   0.00000  Uiso   1.00
C17    C     0.78937  -0.00213   0.01217   0.00000  Uiso   1.00
C18    C     0.99976   0.84241  -0.00333   0.00000  Uiso   1.00
C19    C     0.93700   0.00546   0.17242   0.00000  Uiso   1.00
Ni20   Ni    0.00022   0.50003  -0.00014   0.00000  Uiso   1.00
C21    C     1.00015   0.75913   0.99684   0.00000  Uiso   1.00
C22    C    -0.05087   0.71064   0.97948   0.00000  Uiso   1.00
C23    C    -0.04979   0.63244   0.98062   0.00000  Uiso   1.00
C24    C     1.05036   0.64856   0.01539   0.00000  Uiso   1.00
C25    C     1.05130   0.72708   0.01490   0.00000  Uiso   1.00
H26    H    -0.09189   0.23813   0.97249   0.00000  Uiso   1.00
H27    H     1.09238   0.26694   0.03305   0.00000  Uiso   1.00
H28    H     1.09020   0.40480   0.03064   0.00000  Uiso   1.00
H29    H    -0.08985   0.37676   0.97186   0.00000  Uiso   1.00
N30    N     0.00012   0.39685   0.00130   0.00000  Uiso   1.00
N31    N     1.00029   0.60321   0.99846   0.00000  Uiso   1.00
H32    H    -0.09133   0.73282   0.96535   0.00000  Uiso   1.00
H33    H    -0.08897   0.59488   0.96740   0.00000  Uiso   1.00
H34    H     1.08955   0.62362   0.02934   0.00000  Uiso   1.00
H35    H     1.09151   0.76228   0.02887   0.00000  Uiso   1.00
C36    C     0.00015   0.24097   0.00313   0.00000  Uiso   1.00
C37    C     1.05163   0.28926   0.01954   0.00000  Uiso   1.00
C38    C     1.05062   0.36743   0.01825   0.00000  Uiso   1.00
C39    C    -0.05039   0.35170   0.98528   0.00000  Uiso   1.00
C40    C    -0.05136   0.27318   0.98579   0.00000  Uiso   1.00
Ni41   Ni    0.50006   0.00022   0.00023   0.00000  Uiso   1.00
C42    C     0.28091   1.00189   0.99096   0.00000  Uiso   1.00
C43    C     0.34228   0.96021   0.91222   0.00000  Uiso   1.00
C44    C     0.40811   0.96056   0.91654   0.00000  Uiso   1.00
C45    C     0.35411   0.04181   0.07379   0.00000  Uiso   1.00
C46    C     0.28722   0.04307   0.07256   0.00000  Uiso   1.00
H47    H     0.75888   0.92371   0.86610   0.00000  Uiso   1.00
H48    H     0.66096   0.07320   0.15196   0.00000  Uiso   1.00
H49    H     0.54470   0.07255   0.14389   0.00000  Uiso   1.00
H50    H     0.64045   0.92632   0.86442   0.00000  Uiso   1.00
N51    N     0.58743  -0.00058   0.00398   0.00000  Uiso   1.00
N52    N     0.41270   1.00098   0.99648   0.00000  Uiso   1.00
H53    H     0.33941   0.92772   0.84810   0.00000  Uiso   1.00
H54    H     0.45567   0.92854   0.85618   0.00000  Uiso   1.00
H55    H     0.35943   0.07334   0.13642   0.00000  Uiso   1.00
H56    H     0.24099   0.07577   0.13472   0.00000  Uiso   1.00
C57    C     0.71921  -0.00170   0.00947   0.00000  Uiso   1.00
C58    C     0.65798   0.04042   0.08801   0.00000  Uiso   1.00
C59    C     0.59216   0.04018   0.08370   0.00000  Uiso   1.00
C60    C     0.64588   0.95813   0.92688   0.00000  Uiso   1.00
C61    C     0.71276   0.95678   0.92809   0.00000  Uiso   1.00
Ni62   Ni   -0.00003   0.00022   0.50024   0.00000  Uiso   1.00
C63    C     0.95105   0.00501   0.25291   0.00000  Uiso   1.00
C64    C     1.00223   0.05270   0.27040   0.00000  Uiso   1.00
C65    C     1.01617   0.05038   0.34571   0.00000  Uiso   1.00
C66    C    -0.06986   0.95573   0.38666   0.00000  Uiso   1.00
C67    C    -0.08544   0.95616   0.31207   0.00000  Uiso   1.00
H68    H     1.12573   0.08132   0.69938   0.00000  Uiso   1.00
H69    H    -0.03142   0.90936   0.77437   0.00000  Uiso   1.00
H70    H    -0.05636   0.91426   0.64161   0.00000  Uiso   1.00
H71    H     1.09801   0.08178   0.56743   0.00000  Uiso   1.00
N72    N     0.01970   0.99811   0.59869   0.00000  Uiso   1.00
N73    N     0.98027   0.00230   0.40177   0.00000  Uiso   1.00
H74    H     1.03114   0.09132   0.22637   0.00000  Uiso   1.00
H75    H     1.05574   0.08681   0.35954   0.00000  Uiso   1.00
H76    H    -0.09755   0.91809   0.43248   0.00000  Uiso   1.00
H77    H    -0.12512   0.91839   0.30037   0.00000  Uiso   1.00
C78    C     0.04915   0.99515   0.74730   0.00000  Uiso   1.00
C79    C    -0.00236   0.94782   0.73017   0.00000  Uiso   1.00
C80    C    -0.01646   0.95031   0.65503   0.00000  Uiso   1.00
C81    C     1.07015   0.04433   0.61345   0.00000  Uiso   1.00
C82    C     1.08583   0.04378   0.68792   0.00000  Uiso   1.00
loop_
_geom_bond_atom_site_label_1
_geom_bond_atom_site_label_2
_geom_bond_distance
_geom_bond_site_symmetry_2
_ccdc_geom_bond_type
Y0     O2      2.268   .     S
Y0     O6      2.259   .     S
Y0     O10     2.273   .     S
Y0     O3      2.263   1_554 S
Y0     O7      2.257   1_554 S
Y0     O9      2.253   1_645 S
Y0     O11     2.252   1_545 S
Y1     O5      2.273   .     S
Y1     O13     2.268   .     S
Y1     O15     2.259   .     S
Y1     O3      2.253   1_465 S
Y1     O8      2.252   1_565 S
Y1     O9      2.263   1_556 S
Y1     O16     2.257   1_556 S
O2     C12     1.285   1_654 A
O3     Y0      2.263   1_556 S
O3     Y1      2.253   1_645 S
O3     C14     1.372   1_645 S
C4     O15     1.261   .     A
C4     C42     1.475   .     S
C4     O16     1.260   1_556 A
O5     C14     1.212   .     D
O6     C17     1.261   .     A
O7     Y0      2.257   1_556 S
O7     C17     1.261   1_556 A
O8     C12     1.284   .     A
O8     Y1      2.252   1_545 S
O9     Y0      2.253   1_465 S
O9     Y1      2.263   1_554 S
O9     C19     1.372   1_465 S
O10    C19     1.212   .     D
O11    C18     1.284   .     A
O11    Y0      2.252   1_565 S
C12    O2      1.285   1_456 A
C12    C36     1.482   1_556 S
O13    C18     1.285   1_456 A
C14    C78     1.473   .     S
C14    O3      1.372   1_465 S
O16    Y1      2.257   1_554 S
O16    C4      1.260   1_554 A
C17    C57     1.475   .     S
C17    O7      1.261   1_554 A
C18    O13     1.285   1_654 A
C18    C21     1.482   1_554 S
C19    C63     1.473   .     S
C19    O9      1.372   1_645 S
Ni20   N30     1.840   .     S
Ni20   N31     1.840   1_454 S
C21    C22     1.406   1_655 A
C21    C25     1.406   1_556 A
C21    C18     1.482   1_556 S
C22    C23     1.397   .     A
C22    H32     1.083   .     S
C22    C21     1.406   1_455 A
C23    H33     1.082   .     S
C23    N31     1.359   1_455 A
C24    C25     1.397   .     A
C24    H34     1.082   .     S
C24    N31     1.359   1_554 A
C25    H35     1.083   .     S
C25    C21     1.406   1_554 A
H26    C40     1.083   .     S
H27    C37     1.083   .     S
H28    C38     1.082   .     S
H29    C39     1.082   .     S
N30    C38     1.359   1_455 A
N30    C39     1.359   1_554 A
N31    Ni20    1.840   1_656 S
N31    C23     1.359   1_655 A
N31    C24     1.359   1_556 A
C36    C37     1.406   1_455 A
C36    C40     1.406   1_554 A
C36    C12     1.482   1_554 S
C37    C38     1.397   .     A
C37    C36     1.406   1_655 A
C38    N30     1.359   1_655 A
C39    C40     1.397   .     A
C39    N30     1.359   1_556 A
C40    C36     1.406   1_556 A
Ni41   N51     1.840   .     S
Ni41   N52     1.840   1_544 S
C42    C43     1.403   .     A
C42    C46     1.403   1_566 A
C43    C44     1.397   .     A
C43    H53     1.083   .     S
C44    N52     1.359   .     A
C44    H54     1.082   .     S
C45    C46     1.397   .     A
C45    H55     1.082   .     S
C45    N52     1.359   1_544 A
C46    H56     1.083   .     S
C46    C42     1.403   1_544 A
H47    C61     1.083   .     S
H48    C58     1.083   .     S
H49    C59     1.082   .     S
H50    C60     1.082   .     S
N51    C59     1.359   .     A
N51    C60     1.359   1_544 A
N52    Ni41    1.840   1_566 S
N52    C45     1.359   1_566 A
C57    C58     1.403   .     A
C57    C61     1.403   1_544 A
C58    C59     1.397   .     A
C60    C61     1.397   .     A
C60    N51     1.359   1_566 A
C61    C57     1.403   1_566 A
Ni62   N72     1.840   1_545 S
Ni62   N73     1.840   1_455 S
C63    C64     1.402   .     A
C63    C67     1.403   1_645 A
C64    C65     1.397   .     A
C64    H74     1.083   .     S
C65    N73     1.360   .     A
C65    H75     1.082   .     S
C66    C67     1.397   .     A
C66    H76     1.082   .     S
C66    N73     1.360   1_465 A
C67    H77     1.083   .     S
C67    C63     1.403   1_465 A
H68    C82     1.083   .     S
H69    C79     1.083   .     S
H70    C80     1.082   .     S
H71    C81     1.082   .     S
N72    C80     1.360   .     A
N72    Ni62    1.840   1_565 S
N72    C81     1.360   1_465 A
N73    Ni62    1.840   1_655 S
N73    C66     1.360   1_645 A
C78    C79     1.402   .     A
C78    C82     1.403   1_465 A
C79    C80     1.397   .     A
C81    C82     1.397   .     A
C81    N72     1.360   1_645 A
C82    C78     1.403   1_645 A
