data_pcu+N248+E70
_audit_creation_date              2023-11-17
_audit_creation_method            'Materials Studio'
_symmetry_space_group_name_H-M    'P1'
_symmetry_Int_Tables_number       1
_symmetry_cell_setting            triclinic
loop_
_symmetry_equiv_pos_as_xyz
  x,y,z
_cell_length_a                    10.4545
_cell_length_b                    9.9584
_cell_length_c                    12.3809
_cell_angle_alpha                 90.0298
_cell_angle_beta                  76.0054
_cell_angle_gamma                 88.7920
loop_
_atom_site_label
_atom_site_type_symbol
_atom_site_fract_x
_atom_site_fract_y
_atom_site_fract_z
_atom_site_U_iso_or_equiv
_atom_site_adp_type
_atom_site_occupancy
O0     O     0.86253   1.04753   0.91947   0.00000  Uiso   1.00
Yb1    Yb    1.01834   0.01547   0.11507   0.00000  Uiso   1.00
C2     C     0.96385   1.00974   0.32526   0.00000  Uiso   1.00
Yb3    Yb    0.08591   1.05084   0.87709   0.00000  Uiso   1.00
O4     O     0.81733   0.01790   0.10844   0.00000  Uiso   1.00
C5     C     1.05066   0.29167   0.94269   0.00000  Uiso   1.00
C6     C     0.78129   0.02387   0.01614   0.00000  Uiso   1.00
O7     O     0.91566   0.04514   0.81593   0.00000  Uiso   1.00
C8     C    -0.01690   0.00616   0.71842   0.00000  Uiso   1.00
O9     O     1.00595   0.80856   0.15662   0.00000  Uiso   1.00
O10    O     0.04921   0.86862   0.97713   0.00000  Uiso   1.00
O11    O     0.22726   0.00972   0.09199   0.00000  Uiso   1.00
O12    O     0.10491   0.97463   0.71136   0.00000  Uiso   1.00
O13    O     0.28505   1.04058   0.90294   0.00000  Uiso   1.00
C14    C     0.02382   0.76885   0.05973   0.00000  Uiso   1.00
C15    C     0.31364   1.01590   0.99757   0.00000  Uiso   1.00
O16    O    -0.01988   0.90074   0.26841   0.00000  Uiso   1.00
O17    O     0.98059   0.11683   0.26800   0.00000  Uiso   1.00
O18    O     0.09237   0.26475   0.84349   0.00000  Uiso   1.00
O19    O     1.03782   0.18207   0.01108   0.00000  Uiso   1.00
N20    N     0.06254   0.53754   0.97661   0.00000  Uiso   1.00
H21    H     0.79218   0.65819   0.14654   0.00000  Uiso   1.00
C22    C     0.98553   0.63329   0.03913   0.00000  Uiso   1.00
C23    C     0.86336   0.59199   0.09294   0.00000  Uiso   1.00
C24    C     0.99483   0.42201  -0.01326   0.00000  Uiso   1.00
S25    S     0.83844   0.42762   0.07155   0.00000  Uiso   1.00
N26    N     0.55131   0.04895   0.99201   0.00000  Uiso   1.00
H27    H     0.39137   0.76347   0.04175   0.00000  Uiso   1.00
C28    C     0.44700   0.96964  -0.00165   0.00000  Uiso   1.00
C29    C     0.46678   0.83929   0.02799   0.00000  Uiso   1.00
C30    C     0.64978   0.97490   0.01761   0.00000  Uiso   1.00
S31    S     0.61845   0.80962   0.04856   0.00000  Uiso   1.00
N32    N    -0.02022   0.96756   0.52002   0.00000  Uiso   1.00
H33    H     0.75757   0.16604   0.44680   0.00000  Uiso   1.00
C34    C     0.91507   0.01856   0.44688   0.00000  Uiso   1.00
C35    C     0.81388   0.10749   0.49400   0.00000  Uiso   1.00
C36    C     0.92332   0.01682   0.62297   0.00000  Uiso   1.00
S37    S     0.79202   0.12645   0.63303   0.00000  Uiso   1.00
loop_
_geom_bond_atom_site_label_1
_geom_bond_atom_site_label_2
_geom_bond_distance
_geom_bond_site_symmetry_2
_ccdc_geom_bond_type
O0     C6      1.314   1_566 A
O0     Yb3     2.267   1_655 S
Yb1    O4      2.122   .     S
Yb1    O17     2.093   .     S
Yb1    O19     2.084   .     S
Yb1    Yb3     2.883   1_644 S
Yb1    O9      2.123   1_545 S
Yb1    O10     2.207   1_644 S
Yb1    O11     2.133   1_655 S
Yb1    O16     2.173   1_645 S
C2     O16     1.279   1_655 A
C2     O17     1.272   1_565 A
C2     C34     1.470   1_565 S
Yb3    O10     2.185   .     S
Yb3    O12     2.150   .     S
Yb3    O13     2.182   .     S
Yb3    O0      2.267   1_455 S
Yb3    Yb1     2.883   1_466 S
Yb3    O7      2.098   1_465 S
Yb3    O18     2.170   1_565 S
Yb3    O19     2.069   1_466 S
O4     C6      1.288   .     A
C5     O18     1.227   1_655 D
C5     O19     1.371   1_556 S
C5     C24     1.462   1_556 S
C6     O0      1.314   1_544 A
C6     C30     1.464   1_545 S
O7     Yb3     2.098   1_645 S
O7     C8      1.297   1_655 A
C8     O7      1.297   1_455 A
C8     O12     1.287   1_545 A
C8     C36     1.467   1_455 S
O9     Yb1     2.123   1_565 S
O9     C14     1.232   1_655 D
O10    Yb1     2.207   1_466 S
O10    C14     1.409   1_556 S
O11    Yb1     2.133   1_455 S
O11    C15     1.295   1_544 A
O12    C8      1.287   1_565 A
O13    C15     1.300   .     A
C14    O9      1.232   1_455 D
C14    O10     1.409   1_554 S
C14    C22     1.456   1_455 S
C15    O11     1.295   1_566 A
C15    C28     1.461   1_556 S
O16    Yb1     2.173   1_465 S
O16    C2      1.279   1_455 A
O17    C2      1.272   1_545 A
O18    Yb3     2.170   1_545 S
O18    C5      1.227   1_455 D
O19    Yb3     2.069   1_644 S
O19    C5      1.371   1_554 S
N20    C22     1.350   1_456 A
N20    C24     1.353   1_456 A
H21    C23     1.081   .     S
C22    C23     1.362   .     A
C22    N20     1.350   1_654 A
C22    C14     1.456   1_655 S
C23    S25     1.694   .     A
C24    S25     1.716   .     A
C24    N20     1.353   1_654 A
C24    C5      1.462   1_554 S
N26    C28     1.347   1_546 A
N26    C30     1.353   1_546 A
H27    C29     1.087   .     S
C28    C29     1.374   .     A
C28    N26     1.347   1_564 A
C28    C15     1.461   1_554 S
C29    S31     1.686   .     A
C30    S31     1.711   .     A
C30    N26     1.353   1_564 A
C30    C6      1.464   1_565 S
N32    C34     1.348   1_465 A
N32    C36     1.355   1_465 A
H33    C35     1.086   .     S
C34    C35     1.380   .     A
C34    N32     1.348   1_645 A
C34    C2      1.470   1_545 S
C35    S37     1.691   .     A
C36    S37     1.716   .     A
C36    N32     1.355   1_645 A
C36    C8      1.467   1_655 S
