data_pcu+N139+E9
_audit_creation_date              2023-11-17
_audit_creation_method            'Materials Studio'
_symmetry_space_group_name_H-M    'P1'
_symmetry_Int_Tables_number       1
_symmetry_cell_setting            triclinic
loop_
_symmetry_equiv_pos_as_xyz
  x,y,z
_cell_length_a                    21.0404
_cell_length_b                    17.3010
_cell_length_c                    23.1831
_cell_angle_alpha                 96.9424
_cell_angle_beta                  94.8445
_cell_angle_gamma                 21.6697
loop_
_atom_site_label
_atom_site_type_symbol
_atom_site_fract_x
_atom_site_fract_y
_atom_site_fract_z
_atom_site_U_iso_or_equiv
_atom_site_adp_type
_atom_site_occupancy
C0     C     0.05367  -0.01008   0.20508   0.00000  Uiso   1.00
Sm1    Sm    0.90497   0.03788   0.90809   0.00000  Uiso   1.00
Sm2    Sm    0.08005   0.97524   0.09323   0.00000  Uiso   1.00
C3     C     0.87462   0.23673  -0.02058   0.00000  Uiso   1.00
C4     C     0.21374   0.95704   0.06860   0.00000  Uiso   1.00
O5     O     0.06067   0.88726   0.82812   0.00000  Uiso   1.00
O6     O     0.79094   0.16276   0.82252   0.00000  Uiso   1.00
O7     O     0.13828   0.78042   0.07167   0.00000  Uiso   1.00
O8     O     1.08656   0.84441   0.98107   0.00000  Uiso   1.00
O9     O     0.71270   0.18833  -0.04157   0.00000  Uiso   1.00
O10    O     0.90061   0.91378   0.89602   0.00000  Uiso   1.00
O11    O     0.92565   0.12404   0.17337   0.00000  Uiso   1.00
O12    O     0.19524   0.84881   0.17857   0.00000  Uiso   1.00
O13    O     0.84703   0.23237   0.92966   0.00000  Uiso   1.00
O14    O    -0.10368   0.17155   0.02062   0.00000  Uiso   1.00
O15    O     0.27228   0.82522   1.04306   0.00000  Uiso   1.00
O16    O     0.08415   0.09957   0.10560   0.00000  Uiso   1.00
C17    C     0.93323   1.02049   0.79617   0.00000  Uiso   1.00
C18    C     0.10790   0.77947   1.02216   0.00000  Uiso   1.00
C19    C     0.77127   0.05633   0.93317   0.00000  Uiso   1.00
C20    C     1.04535   0.60923   0.00919   0.00000  Uiso   1.00
N21    N     1.12801   0.54864   0.96459   0.00000  Uiso   1.00
N22    N     1.14890   0.60196   0.96832   0.00000  Uiso   1.00
C23    C     1.08607   0.71962   0.01657   0.00000  Uiso   1.00
N24    N     1.00789   0.77488   0.06168   0.00000  Uiso   1.00
N25    N     0.98716   0.72159   0.05798   0.00000  Uiso   1.00
C26    C     1.01907   0.55445   0.00508   0.00000  Uiso   1.00
N27    N     0.93578   0.61662   0.04994   0.00000  Uiso   1.00
N28    N     0.90900   0.57043   0.04610   0.00000  Uiso   1.00
C29    C     0.96393   0.46115  -0.00289   0.00000  Uiso   1.00
N30    N     1.04557   0.40098   0.95202   0.00000  Uiso   1.00
N31    N     1.07243   0.44707   0.95589   0.00000  Uiso   1.00
C32    C     0.93555   0.40895  -0.00728   0.00000  Uiso   1.00
N33    N     0.98984   0.30133   0.94333   0.00000  Uiso   1.00
N34    N     0.96835   0.24896   0.93946   0.00000  Uiso   1.00
C35    C     0.89393   0.29964  -0.01500   0.00000  Uiso   1.00
N36    N     0.83411   0.41364   0.03380   0.00000  Uiso   1.00
N37    N     0.85571   0.46610   0.03771   0.00000  Uiso   1.00
C38    C     0.39334  -0.02927   0.03043   0.00000  Uiso   1.00
N39    N     0.29704   0.07263   0.08076   0.00000  Uiso   1.00
N40    N     0.24335   1.06378   0.09320   0.00000  Uiso   1.00
C41    C     0.28529  -0.04881   0.05616   0.00000  Uiso   1.00
N42    N     0.38494  -0.15488   1.00637   0.00000  Uiso   1.00
N43    N     0.43703  -0.14400   0.99357   0.00000  Uiso   1.00
C44    C     0.44446  -0.00986   0.01547   0.00000  Uiso   1.00
N45    N     0.52370  -0.09117   0.96240   0.00000  Uiso   1.00
N46    N     0.56631  -0.06900   0.94841   0.00000  Uiso   1.00
C47    C     0.53020   0.03646  -0.01321   0.00000  Uiso   1.00
N48    N     0.45106   0.11768   0.03989   0.00000  Uiso   1.00
N49    N     0.40838   0.09556   0.05388   0.00000  Uiso   1.00
C50    C     0.58313   0.05362  -0.02820   0.00000  Uiso   1.00
N51    N     0.54712   0.15967   0.00953   0.00000  Uiso   1.00
N52    N     0.60331   1.16539  -0.00327   0.00000  Uiso   1.00
C53    C     0.69960   0.06259  -0.05384   0.00000  Uiso   1.00
N54    N     0.73662  -0.04458   0.90869   0.00000  Uiso   1.00
N55    N     0.67847  -0.04782   0.92111   0.00000  Uiso   1.00
C56    C     1.01598   0.00285   0.38174   0.00000  Uiso   1.00
N57    N     0.15533   0.88076   0.35793   0.00000  Uiso   1.00
N58    N     0.16720   0.87695   0.30160   0.00000  Uiso   1.00
C59    C     1.03953  -0.00367   0.26718   0.00000  Uiso   1.00
N60    N     0.90042   0.11803   0.29091   0.00000  Uiso   1.00
N61    N     0.88942   0.12022   0.34712   0.00000  Uiso   1.00
C62    C     1.00404   0.00468   0.44361   0.00000  Uiso   1.00
N63    N     0.87095   0.11479   0.46642   0.00000  Uiso   1.00
N64    N     0.86041   0.11581   0.52248   0.00000  Uiso   1.00
C65    C     0.98333   0.00550   0.55772   0.00000  Uiso   1.00
N66    N     1.11637   0.89552   0.53493   0.00000  Uiso   1.00
N67    N     1.12642   0.89530   0.47891   0.00000  Uiso   1.00
C68    C     0.97216   0.00594   0.61950   0.00000  Uiso   1.00
N69    N     0.09823   0.88950   0.65424   0.00000  Uiso   1.00
N70    N     0.08714   0.89171   0.71044   0.00000  Uiso   1.00
C71    C     0.94860   0.01217   0.73400   0.00000  Uiso   1.00
N72    N     0.82222   0.12917   0.69936   0.00000  Uiso   1.00
N73    N     0.83403   0.12560   0.64306   0.00000  Uiso   1.00
loop_
_geom_bond_atom_site_label_1
_geom_bond_atom_site_label_2
_geom_bond_distance
_geom_bond_site_symmetry_2
_ccdc_geom_bond_type
C0     O11     1.281   1_455 A
C0     O12     1.281   1_545 A
C0     C59     1.465   1_455 S
Sm1    O6      2.226   .     S
Sm1    O13     2.265   .     S
Sm1    O5      2.225   1_645 S
Sm1    O8      2.274   1_545 S
Sm1    O9      2.235   1_556 S
Sm1    O10     2.217   1_545 S
Sm2    O7      2.266   .     S
Sm2    O12     2.226   .     S
Sm2    O11     2.225   1_465 S
Sm2    O14     2.279   1_565 S
Sm2    O15     2.236   1_554 S
Sm2    O16     2.215   1_565 S
C3     C35     1.465   .     S
C3     O13     1.273   1_554 A
C3     O14     1.274   1_655 A
C4     O15     1.282   1_554 A
C4     O16     1.280   1_565 A
C4     C41     1.464   1_565 S
O5     Sm1     2.225   1_465 S
O5     C17     1.281   1_455 A
O6     C17     1.282   1_545 A
O7     C18     1.272   1_554 A
O8     Sm1     2.274   1_565 S
O8     C18     1.273   1_655 A
O9     Sm1     2.235   1_554 S
O9     C19     1.282   1_554 A
O10    Sm1     2.217   1_565 S
O10    C19     1.280   1_565 A
O11    C0      1.281   1_655 A
O11    Sm2     2.225   1_645 S
O12    C0      1.281   1_565 A
O13    C3      1.273   1_556 A
O14    Sm2     2.279   1_545 S
O14    C3      1.274   1_455 A
O15    Sm2     2.236   1_556 S
O15    C4      1.282   1_556 A
O16    Sm2     2.215   1_545 S
O16    C4      1.280   1_545 A
C17    O5      1.281   1_655 A
C17    O6      1.282   1_565 A
C17    C71     1.465   1_565 S
C18    O7      1.272   1_556 A
C18    O8      1.273   1_455 A
C18    C23     1.463   1_456 S
C19    O9      1.282   1_556 A
C19    O10     1.280   1_545 A
C19    C53     1.464   1_556 S
C20    N25     1.355   .     A
C20    C26     1.468   .     S
C20    N21     1.359   1_554 A
N21    N22     1.334   .     A
N21    C20     1.359   1_556 A
N22    C23     1.357   1_556 A
C23    N24     1.356   .     A
C23    N22     1.357   1_554 A
C23    C18     1.463   1_654 S
N24    N25     1.330   .     A
C26    N27     1.358   .     A
C26    N31     1.356   1_554 A
N27    N28     1.332   .     A
N28    C29     1.357   .     A
C29    C32     1.467   .     S
C29    N30     1.358   1_554 A
N30    N31     1.332   .     A
N30    C29     1.358   1_556 A
N31    C26     1.356   1_556 A
C32    N37     1.359   .     A
C32    N33     1.355   1_554 A
N33    N34     1.330   .     A
N33    C32     1.355   1_556 A
N34    C35     1.356   1_556 A
C35    N36     1.357   .     A
C35    N34     1.356   1_554 A
N36    N37     1.334   .     A
C38    N39     1.356   .     A
C38    C44     1.467   .     S
C38    N43     1.359   1_554 A
N39    N40     1.330   1_545 A
N40    N39     1.330   1_565 A
N40    C41     1.356   1_565 A
C41    N40     1.356   1_545 A
C41    N42     1.357   1_554 A
C41    C4      1.464   1_545 S
N42    N43     1.333   .     A
N42    C41     1.357   1_556 A
N43    C38     1.359   1_556 A
C44    N49     1.358   .     A
C44    N45     1.357   1_554 A
N45    N46     1.332   .     A
N45    C44     1.357   1_556 A
N46    C47     1.358   1_556 A
C47    N48     1.357   .     A
C47    C50     1.468   .     S
C47    N46     1.358   1_554 A
N48    N49     1.333   .     A
C50    N51     1.359   .     A
C50    N55     1.357   1_554 A
N51    N52     1.334   1_545 A
N52    N51     1.334   1_565 A
N52    C53     1.357   1_565 A
C53    N52     1.357   1_545 A
C53    N54     1.356   1_554 A
C53    C19     1.464   1_554 S
N54    N55     1.332   .     A
N54    C53     1.356   1_556 A
N55    C50     1.357   1_556 A
C56    N61     1.357   .     A
C56    C62     1.469   .     S
C56    N57     1.358   1_645 A
N57    N58     1.333   .     A
N57    C56     1.358   1_465 A
N58    C59     1.357   1_465 A
C59    N60     1.356   .     A
C59    N58     1.357   1_645 A
C59    C0      1.465   1_655 S
N60    N61     1.333   .     A
C62    N63     1.357   .     A
C62    N67     1.357   1_545 A
N63    N64     1.332   .     A
N64    C65     1.358   .     A
C65    C68     1.469   .     S
C65    N66     1.357   1_545 A
N66    N67     1.332   .     A
N66    C65     1.357   1_565 A
N67    C62     1.357   1_565 A
C68    N73     1.357   .     A
C68    N69     1.357   1_645 A
N69    N70     1.333   .     A
N69    C68     1.357   1_465 A
N70    C71     1.357   1_465 A
C71    N72     1.357   .     A
C71    N70     1.357   1_645 A
C71    C17     1.465   1_545 S
N72    N73     1.332   .     A
