data_pcu+N394+E183
_audit_creation_date              2023-11-17
_audit_creation_method            'Materials Studio'
_symmetry_space_group_name_H-M    'P1'
_symmetry_Int_Tables_number       1
_symmetry_cell_setting            triclinic
loop_
_symmetry_equiv_pos_as_xyz
  x,y,z
_cell_length_a                    15.8891
_cell_length_b                    13.4254
_cell_length_c                    12.8748
_cell_angle_alpha                 90.0313
_cell_angle_beta                  84.1888
_cell_angle_gamma                 90.0852
loop_
_atom_site_label
_atom_site_type_symbol
_atom_site_fract_x
_atom_site_fract_y
_atom_site_fract_z
_atom_site_U_iso_or_equiv
_atom_site_adp_type
_atom_site_occupancy
Pr0    Pr    0.09100   1.00023  -0.00269   0.00000  Uiso   1.00
Pr1    Pr    0.90920  -0.00005   1.00288   0.00000  Uiso   1.00
O2     O     0.92810   0.16954   1.00116   0.00000  Uiso   1.00
O3     O     0.07210   0.16979  -0.00057   0.00000  Uiso   1.00
O4     O     0.22407   0.00056   0.91427   0.00000  Uiso   1.00
O5     O     0.20970   1.00027   0.08266   0.00000  Uiso   1.00
O6     O     0.99173   1.00000   0.13520   0.00000  Uiso   1.00
O7     O     0.12697   1.00017   0.16345   0.00000  Uiso   1.00
C8     C     0.94625   0.00013   0.79537   0.00000  Uiso   1.00
C9     C     1.00010   0.21529   0.00031   0.00000  Uiso   1.00
C10    C     0.26022   0.00049   0.99854   0.00000  Uiso   1.00
C11    C     0.73998  -0.00031   0.00166   0.00000  Uiso   1.00
C12    C     0.00010   0.78488   0.99989   0.00000  Uiso   1.00
C13    C     0.05396   1.00004   0.20482   0.00000  Uiso   1.00
O14    O     0.07210   0.83063  -0.00096   0.00000  Uiso   1.00
O15    O     0.92810   0.83039   1.00077   0.00000  Uiso   1.00
O16    O     0.77613   0.99962   0.08593   0.00000  Uiso   1.00
O17    O     0.79050  -0.00008   0.91753   0.00000  Uiso   1.00
O18    O     0.00847   0.00017   0.86500   0.00000  Uiso   1.00
O19    O     0.87323  -0.00001   0.83673   0.00000  Uiso   1.00
C20    C     0.00009   0.67518   0.99989   0.00000  Uiso   1.00
C21    C     0.95738   0.50001   1.00049   0.00000  Uiso   1.00
C22    C     0.04281   0.50017  -0.00030   0.00000  Uiso   1.00
S23    S     0.90644   0.38912   1.00110   0.00000  Uiso   1.00
S24    S     0.09374   0.38946  -0.00063   0.00000  Uiso   1.00
S25    S     0.90644   0.61071   1.00083   0.00000  Uiso   1.00
S26    S     0.09375   0.61106  -0.00090   0.00000  Uiso   1.00
C27    C     1.00009   0.32500   0.00030   0.00000  Uiso   1.00
C28    C     0.35255   0.00053   0.99906   0.00000  Uiso   1.00
C29    C     0.49552   1.00001   0.05309   0.00000  Uiso   1.00
C30    C     0.50469   0.00027   0.94712   0.00000  Uiso   1.00
S31    S     0.58363   0.99954   0.11690   0.00000  Uiso   1.00
S32    S     0.60372  -0.00001   0.88463   0.00000  Uiso   1.00
S33    S     0.39649   1.00026   0.11557   0.00000  Uiso   1.00
S34    S     0.41658   0.00069   0.88331   0.00000  Uiso   1.00
C35    C     0.64765   0.99968   0.00114   0.00000  Uiso   1.00
C36    C     1.03350   0.00000   0.31847   0.00000  Uiso   1.00
C37    C     0.04194   0.99988   0.50676   0.00000  Uiso   1.00
C38    C     0.95829   0.00032   0.49344   0.00000  Uiso   1.00
S39    S     0.07058   0.99969   0.62992   0.00000  Uiso   1.00
S40    S     0.88721   0.00064   0.60074   0.00000  Uiso   1.00
S41    S     0.11301   0.99955   0.39946   0.00000  Uiso   1.00
S42    S     0.92964   0.00050   0.37028   0.00000  Uiso   1.00
C43    C    -0.03328   1.00017   0.68172   0.00000  Uiso   1.00
loop_
_geom_bond_atom_site_label_1
_geom_bond_atom_site_label_2
_geom_bond_distance
_geom_bond_site_symmetry_2
_ccdc_geom_bond_type
Pr0    O5      2.277   .     S
Pr0    O7      2.269   .     S
Pr0    O14     2.296   .     S
Pr0    O3      2.296   1_565 S
Pr0    O4      2.271   1_564 S
Pr0    O6      2.252   1_455 S
Pr0    O18     2.253   1_564 S
Pr1    O2      2.296   .     S
Pr1    O17     2.277   .     S
Pr1    O19     2.269   .     S
Pr1    O6      2.253   1_546 S
Pr1    O15     2.296   1_545 S
Pr1    O16     2.271   1_546 S
Pr1    O18     2.252   1_655 S
O2     C9      1.297   1_556 A
O3     Pr0     2.296   1_545 S
O3     C9      1.297   1_455 A
O4     C10     1.278   .     A
O4     Pr0     2.271   1_546 S
O5     C10     1.281   1_564 A
O6     Pr0     2.252   1_655 S
O6     Pr1     2.253   1_564 S
O6     C13     1.400   1_655 S
O7     C13     1.227   .     D
C8     O19     1.227   .     D
C8     O18     1.400   1_655 S
C8     C43     1.466   1_645 S
C9     C27     1.473   .     S
C9     O2      1.297   1_554 A
C9     O3      1.297   1_655 A
C10    C28     1.468   .     S
C10    O5      1.281   1_546 A
C11    O16     1.278   1_545 A
C11    O17     1.281   1_554 A
C11    C35     1.468   1_545 S
C12    C20     1.473   .     S
C12    O14     1.297   1_556 A
C12    O15     1.297   1_455 A
C13    O6      1.400   1_455 S
C13    C36     1.466   1_465 S
O14    C12     1.297   1_554 A
O15    Pr1     2.296   1_565 S
O15    C12     1.297   1_655 A
O16    Pr1     2.271   1_564 S
O16    C11     1.278   1_565 A
O17    C11     1.281   1_556 A
O18    Pr0     2.253   1_546 S
O18    Pr1     2.252   1_455 S
O18    C8      1.400   1_455 S
C20    S25     1.719   1_455 A
C20    S26     1.719   1_556 A
C21    S23     1.693   .     A
C21    S25     1.693   .     A
C21    C22     1.356   1_656 A
C22    S24     1.693   .     A
C22    S26     1.693   .     A
C22    C21     1.356   1_454 A
S23    C27     1.719   1_556 A
S24    C27     1.719   1_455 A
S25    C20     1.719   1_655 A
S26    C20     1.719   1_554 A
C27    S23     1.719   1_554 A
C27    S24     1.719   1_655 A
C28    S34     1.717   .     A
C28    S33     1.717   1_546 A
C29    S31     1.693   .     A
C29    S33     1.693   .     A
C29    C30     1.357   1_564 A
C30    S32     1.693   .     A
C30    S34     1.694   .     A
C30    C29     1.357   1_546 A
S31    C35     1.717   .     A
S32    C35     1.717   1_546 A
S33    C28     1.717   1_564 A
C35    S32     1.717   1_564 A
C35    C11     1.468   1_565 S
C36    S42     1.716   .     A
C36    S41     1.718   1_645 A
C36    C13     1.466   1_645 S
C37    S39     1.693   .     A
C37    S41     1.693   .     A
C37    C38     1.357   1_465 A
C38    S40     1.693   .     A
C38    S42     1.693   .     A
C38    C37     1.357   1_645 A
S39    C43     1.716   .     A
S40    C43     1.717   1_645 A
S41    C36     1.718   1_465 A
C43    S40     1.717   1_465 A
C43    C8      1.466   1_465 S
