data_pcu+N144+E14
_audit_creation_date              2023-11-17
_audit_creation_method            'Materials Studio'
_symmetry_space_group_name_H-M    'P1'
_symmetry_Int_Tables_number       1
_symmetry_cell_setting            triclinic
loop_
_symmetry_equiv_pos_as_xyz
  x,y,z
_cell_length_a                    13.2116
_cell_length_b                    11.4244
_cell_length_c                    11.4083
_cell_angle_alpha                 90.1393
_cell_angle_beta                  80.6228
_cell_angle_gamma                 103.4418
loop_
_atom_site_label
_atom_site_type_symbol
_atom_site_fract_x
_atom_site_fract_y
_atom_site_fract_z
_atom_site_U_iso_or_equiv
_atom_site_adp_type
_atom_site_occupancy
C0     C     0.31105   0.08987   0.02498   0.00000  Uiso   1.00
Er1    Er    0.90494   0.94345   1.01089   0.00000  Uiso   1.00
Er2    Er    0.08330   0.99272  -0.02266   0.00000  Uiso   1.00
C3     C    -0.00665   0.96790   0.24066   0.00000  Uiso   1.00
O4     O     0.08505   0.18295  -0.02234   0.00000  Uiso   1.00
C5     C    -0.00041   0.72350  -0.00716   0.00000  Uiso   1.00
C6     C     0.99398   0.96807   0.74774   0.00000  Uiso   1.00
C7     C     0.71805  -0.00586   1.03899   0.00000  Uiso   1.00
O8     O     0.27317   0.15931   0.08951   0.00000  Uiso   1.00
O9     O     0.25807   0.03187   0.93743   0.00000  Uiso   1.00
O10    O     0.08078   0.99261   0.78748   0.00000  Uiso   1.00
O11    O     0.90726   0.94346   0.82019   0.00000  Uiso   1.00
O12    O     0.08534   0.80352  -0.02375   0.00000  Uiso   1.00
O13    O     0.91278   0.75548   1.00972   0.00000  Uiso   1.00
C14    C     0.99894   0.21676  -0.00671   0.00000  Uiso   1.00
O15    O     0.91108   0.13762   0.00941   0.00000  Uiso   1.00
O16    O     0.08036   0.99080   0.16830   0.00000  Uiso   1.00
O17    O     0.90638   0.94486   0.20091   0.00000  Uiso   1.00
O18    O     0.80426   0.07402   1.02846   0.00000  Uiso   1.00
O19    O     0.73305  -0.11081   0.03822   0.00000  Uiso   1.00
C20    C     0.90468   0.50608   0.00613   0.00000  Uiso   1.00
C21    C     0.00016   0.59410  -0.00739   0.00000  Uiso   1.00
C22    C     0.09560   0.55711  -0.02103   0.00000  Uiso   1.00
C23    C     0.09540   0.43458  -0.02083   0.00000  Uiso   1.00
C24    C    -0.00023   0.34660  -0.00715   0.00000  Uiso   1.00
C25    C     0.90453   0.38386   0.00606   0.00000  Uiso   1.00
H26    H     0.82980   0.53155   0.01656   0.00000  Uiso   1.00
H27    H     0.17048   0.62282  -0.03159   0.00000  Uiso   1.00
H28    H     0.17015   0.40880  -0.03125   0.00000  Uiso   1.00
H29    H     0.82959   0.31864   0.01608   0.00000  Uiso   1.00
C30    C     0.43371  -0.04597   0.00477   0.00000  Uiso   1.00
C31    C     0.41417   0.06643   1.03639   0.00000  Uiso   1.00
C32    C     0.49406   0.15438   1.07513   0.00000  Uiso   1.00
C33    C     0.59345   0.13126   1.07762   0.00000  Uiso   1.00
C34    C     0.61292   0.01903   1.04429   0.00000  Uiso   1.00
C35    C     0.53166  -0.06982   0.00983   0.00000  Uiso   1.00
H36    H     0.37304  -0.11570  -0.02415   0.00000  Uiso   1.00
H37    H     0.48059   0.24170   1.10009   0.00000  Uiso   1.00
H38    H     0.65481   0.20071   1.10541   0.00000  Uiso   1.00
H39    H     0.54478  -0.15698  -0.01653   0.00000  Uiso   1.00
C40    C     0.89801   0.94158   0.45108   0.00000  Uiso   1.00
C41    C    -0.00653   0.96807   0.37037   0.00000  Uiso   1.00
C42    C     0.08912   0.99472   0.41482   0.00000  Uiso   1.00
C43    C     0.08929   0.99476   0.53730   0.00000  Uiso   1.00
C44    C    -0.00617   0.96814   0.61802   0.00000  Uiso   1.00
C45    C     0.89818   0.94158   0.57356   0.00000  Uiso   1.00
H46    H     0.82300   0.92072   0.41966   0.00000  Uiso   1.00
H47    H     0.16402   1.01560   0.35496   0.00000  Uiso   1.00
H48    H     0.16430   1.01564   0.56871   0.00000  Uiso   1.00
H49    H     0.82330   0.92075   0.63342   0.00000  Uiso   1.00
loop_
_geom_bond_atom_site_label_1
_geom_bond_atom_site_label_2
_geom_bond_distance
_geom_bond_site_symmetry_2
_ccdc_geom_bond_type
C0     O8      1.218   .     D
C0     O9      1.391   1_554 S
C0     C31     1.474   1_554 S
Er1    O11     2.171   .     S
Er1    O13     2.174   .     S
Er1    O15     2.201   1_566 S
Er1    O17     2.171   1_556 S
Er1    O18     2.207   1_565 S
Er1    O19     2.181   1_566 S
Er2    O12     2.168   .     S
Er2    O16     2.173   .     S
Er2    O4      2.168   1_565 S
Er2    O9      2.217   1_564 S
Er2    O10     2.172   1_554 S
C3     O16     1.274   .     A
C3     C41     1.480   .     S
C3     O17     1.274   1_455 A
O4     Er2     2.168   1_545 S
O4     C14     1.270   1_455 A
C5     O12     1.267   .     A
C5     C21     1.480   .     S
C5     O13     1.268   1_454 A
C6     O11     1.272   .     A
C6     O10     1.272   1_655 A
C6     C44     1.480   1_655 S
C7     O18     1.272   .     A
C7     C34     1.473   .     S
C7     O19     1.260   1_556 A
O9     C0      1.391   1_556 S
O9     Er2     2.217   1_546 S
O10    Er2     2.172   1_556 S
O10    C6      1.272   1_455 A
O13    C5      1.268   1_656 A
C14    O15     1.281   .     A
C14    O4      1.270   1_655 A
C14    C24     1.481   1_655 S
O15    Er1     2.201   1_544 S
O17    Er1     2.171   1_554 S
O17    C3      1.274   1_655 A
O18    Er1     2.207   1_545 S
O19    Er1     2.181   1_544 S
O19    C7      1.260   1_554 A
C20    C25     1.396   .     A
C20    H26     1.083   .     S
C20    C21     1.405   1_655 A
C21    C22     1.406   .     A
C21    C20     1.405   1_455 A
C22    C23     1.399   .     A
C22    H27     1.083   .     S
C23    C24     1.406   .     A
C23    H28     1.083   .     S
C24    C25     1.405   1_455 A
C24    C14     1.481   1_455 S
C25    H29     1.081   .     S
C25    C24     1.405   1_655 A
C30    C35     1.393   .     A
C30    H36     1.084   .     S
C30    C31     1.402   1_554 A
C31    C32     1.406   .     A
C31    C30     1.402   1_556 A
C31    C0      1.474   1_556 S
C32    C33     1.403   .     A
C32    H37     1.083   .     S
C33    C34     1.405   .     A
C33    H38     1.082   .     S
C34    C35     1.402   1_556 A
C35    H39     1.083   .     S
C35    C34     1.402   1_554 A
C40    C45     1.398   .     A
C40    H46     1.083   .     S
C40    C41     1.405   1_655 A
C41    C42     1.406   .     A
C41    C40     1.405   1_455 A
C42    C43     1.398   .     A
C42    H47     1.083   .     S
C43    C44     1.406   .     A
C43    H48     1.083   .     S
C44    C45     1.406   1_455 A
C44    C6      1.480   1_455 S
C45    H49     1.083   .     S
C45    C44     1.406   1_655 A
