data_pcu+N205+E28
_audit_creation_date              2023-11-17
_audit_creation_method            'Materials Studio'
_symmetry_space_group_name_H-M    'P1'
_symmetry_Int_Tables_number       1
_symmetry_cell_setting            triclinic
loop_
_symmetry_equiv_pos_as_xyz
  x,y,z
_cell_length_a                    21.6241
_cell_length_b                    23.5073
_cell_length_c                    17.1975
_cell_angle_alpha                 104.6106
_cell_angle_beta                  131.2214
_cell_angle_gamma                 94.6048
loop_
_atom_site_label
_atom_site_type_symbol
_atom_site_fract_x
_atom_site_fract_y
_atom_site_fract_z
_atom_site_U_iso_or_equiv
_atom_site_adp_type
_atom_site_occupancy
Y0     Y     0.07564   0.10343   0.03076   0.00000  Uiso   1.00
Y1     Y     0.91609   0.90956   0.97079   0.00000  Uiso   1.00
C2     C     0.79987   0.93625   0.97711   0.00000  Uiso   1.00
C3     C     1.06861   0.03903   0.16316   0.00000  Uiso   1.00
C4     C     0.05384   0.21405   0.02291   0.00000  Uiso   1.00
C5     C     0.19190   0.07664   0.02459   0.00000  Uiso   1.00
C6     C    -0.07704   0.97399   0.83826   0.00000  Uiso   1.00
C7     C     0.93809   0.79899   0.97860   0.00000  Uiso   1.00
O8     O     0.78042   0.91008   0.88659   0.00000  Uiso   1.00
O9     O     0.87934   0.94872   0.06383   0.00000  Uiso   1.00
O10    O     1.09883   0.09240   0.17419   0.00000  Uiso   1.00
O11    O     1.04029   0.99081   0.08017   0.00000  Uiso   1.00
O12    O     0.00708   0.16309   0.93672   0.00000  Uiso   1.00
O13    O     0.11168   0.20762   0.11330   0.00000  Uiso   1.00
O14    O     0.21140   0.10310   0.11508   0.00000  Uiso   1.00
O15    O     0.11236   0.06392   0.93782   0.00000  Uiso   1.00
O16    O    -0.10722   0.92063   0.82729   0.00000  Uiso   1.00
O17    O    -0.04864   0.02223   0.92131   0.00000  Uiso   1.00
O18    O     0.98480   0.84995   0.06480   0.00000  Uiso   1.00
O19    O     0.88018   0.80540   0.88821   0.00000  Uiso   1.00
C20    C     0.97320   0.62300  -0.00816   0.00000  Uiso   1.00
C21    C     0.90751   0.62661   0.88757   0.00000  Uiso   1.00
C22    C     0.89607   0.68380   0.88327   0.00000  Uiso   1.00
C23    C     0.95008   0.73859  -0.01693   0.00000  Uiso   1.00
C24    C     1.01572   0.73521   0.08726   0.00000  Uiso   1.00
C25    C     1.02718   0.67803   0.09166   0.00000  Uiso   1.00
C26    C     0.98525   0.56229  -0.00355   0.00000  Uiso   1.00
N27    N     1.04862   0.55864   0.09697   0.00000  Uiso   1.00
N28    N     1.05940   0.50411   0.10113   0.00000  Uiso   1.00
C29    C     1.00727   0.45086   0.00494   0.00000  Uiso   1.00
N30    N     0.94387   0.45451   0.90442   0.00000  Uiso   1.00
N31    N     0.93309   0.50903   0.90026   0.00000  Uiso   1.00
C32    C     1.01923   0.39013   0.00957   0.00000  Uiso   1.00
C33    C     0.96487   0.33504   0.90982   0.00000  Uiso   1.00
C34    C     0.97615   0.27782   0.91424   0.00000  Uiso   1.00
C35    C     1.04196   0.27447   0.01838   0.00000  Uiso   1.00
C36    C     1.09636   0.32931   0.11809   0.00000  Uiso   1.00
C37    C     1.08513   0.38656   0.11379   0.00000  Uiso   1.00
H38    H     0.86474   0.58523   0.80903   0.00000  Uiso   1.00
H39    H    -0.15504   0.68517   0.80181   0.00000  Uiso   1.00
H40    H     1.05825   0.77681   0.16550   0.00000  Uiso   1.00
H41    H     1.07839   0.67704   0.17341   0.00000  Uiso   1.00
H42    H     0.91350   0.33600   0.82810   0.00000  Uiso   1.00
H43    H    -0.06667   0.23617   0.83607   0.00000  Uiso   1.00
H44    H     1.14765   0.32798   0.19952   0.00000  Uiso   1.00
H45    H     1.12822   0.42799   0.19228   0.00000  Uiso   1.00
C46    C     0.37499   0.03428   1.01065   0.00000  Uiso   1.00
C47    C     0.40227   0.06380   0.11545   0.00000  Uiso   1.00
C48    C     0.34273   0.07748   0.12006   0.00000  Uiso   1.00
C49    C     0.25481   0.06199   1.02009   0.00000  Uiso   1.00
C50    C     0.22733   1.03250   0.91537   0.00000  Uiso   1.00
C51    C     0.28677   1.01879   0.91067   0.00000  Uiso   1.00
C52    C     0.43809   0.01981   1.00562   0.00000  Uiso   1.00
N53    N     0.41203   0.99159   0.90456   0.00000  Uiso   1.00
N54    N     0.46871   0.97866   0.90004   0.00000  Uiso   1.00
C55    C     0.55393  -0.00663   0.99637   0.00000  Uiso   1.00
N56    N     0.57999   0.02158   0.09742   0.00000  Uiso   1.00
N57    N     0.52331   0.03452   0.10194   0.00000  Uiso   1.00
C58    C     0.61698  -0.02116   0.99129   0.00000  Uiso   1.00
C59    C     0.70497  -0.00647   0.09124   0.00000  Uiso   1.00
C60    C     0.76432  -0.02030   0.08645   0.00000  Uiso   1.00
C61    C     0.73700  -0.04909   0.98169   0.00000  Uiso   1.00
C62    C     0.64932   0.93620   0.88176   0.00000  Uiso   1.00
C63    C     0.58988   0.95001   0.88646   0.00000  Uiso   1.00
H64    H     0.46967   0.07643   0.19412   0.00000  Uiso   1.00
H65    H     0.36552   0.10027   0.20187   0.00000  Uiso   1.00
H66    H     0.15984   1.02009   0.83696   0.00000  Uiso   1.00
H67    H     0.26340   0.99605   0.82850   0.00000  Uiso   1.00
H68    H     0.72818   0.01568   0.17342   0.00000  Uiso   1.00
H69    H     0.83161  -0.00854   0.16483   0.00000  Uiso   1.00
H70    H     0.62667   0.91398   0.79993   0.00000  Uiso   1.00
H71    H     0.52266   0.93801   0.80778   0.00000  Uiso   1.00
C72    C     0.03202   0.02215   0.37421   0.00000  Uiso   1.00
C73    C     1.02323   0.07364   0.34464   0.00000  Uiso   1.00
C74    C     1.03743   0.07993   0.27841   0.00000  Uiso   1.00
C75    C     0.05981   0.03458   0.23952   0.00000  Uiso   1.00
C76    C     0.07155   0.98432   0.27190   0.00000  Uiso   1.00
C77    C     0.05750   0.97797   0.33828   0.00000  Uiso   1.00
C78    C     0.01354   0.01415   0.44066   0.00000  Uiso   1.00
N79    N     0.01898   0.96341   0.46604   0.00000  Uiso   1.00
N80    N     0.00139   0.95588   0.52459   0.00000  Uiso   1.00
C81    C    -0.02258  -0.00130   0.56011   0.00000  Uiso   1.00
N82    N     0.97194   0.04942   0.53466   0.00000  Uiso   1.00
N83    N     0.98954   0.05696   0.47613   0.00000  Uiso   1.00
C84    C    -0.04097  -0.00926   0.62666   0.00000  Uiso   1.00
C85    C     0.93432   0.03520   0.66345   0.00000  Uiso   1.00
C86    C     0.92042   0.02889   0.73000   0.00000  Uiso   1.00
C87    C    -0.06837  -0.02157   0.76178   0.00000  Uiso   1.00
C88    C    -0.04682   0.93278   0.72195   0.00000  Uiso   1.00
C89    C    -0.03290   0.93897   0.65540   0.00000  Uiso   1.00
H90    H     1.00405   0.10866   0.37114   0.00000  Uiso   1.00
H91    H     1.02836   0.11926   0.25472   0.00000  Uiso   1.00
H92    H     0.09155   0.95001   0.24573   0.00000  Uiso   1.00
H93    H     0.06598   0.93818   0.36062   0.00000  Uiso   1.00
H94    H     0.92630   0.07517   0.64164   0.00000  Uiso   1.00
H95    H     0.90080   0.06335   0.75658   0.00000  Uiso   1.00
H96    H    -0.03821   0.89325   0.74511   0.00000  Uiso   1.00
H97    H    -0.01443   0.90368   0.62812   0.00000  Uiso   1.00
loop_
_geom_bond_atom_site_label_1
_geom_bond_atom_site_label_2
_geom_bond_distance
_geom_bond_site_symmetry_2
_ccdc_geom_bond_type
Y0     O13     2.259   .     S
Y0     O14     2.263   .     S
Y0     O10     2.262   1_455 S
Y0     O12     2.258   1_554 S
Y0     O15     2.256   1_554 S
Y0     O17     2.260   1_554 S
Y1     O8      2.263   .     S
Y1     O19     2.259   .     S
Y1     O9      2.256   1_556 S
Y1     O11     2.259   1_556 S
Y1     O16     2.262   1_655 S
Y1     O18     2.258   1_556 S
C2     O8      1.261   .     A
C2     O9      1.259   1_556 A
C2     C61     1.475   1_565 S
C3     O10     1.274   .     A
C3     O11     1.272   1_545 A
C3     C75     1.472   1_655 S
C4     O13     1.261   .     A
C4     O12     1.261   1_554 A
C4     C35     1.476   1_455 S
C5     O14     1.261   .     A
C5     O15     1.259   1_554 A
C5     C49     1.475   1_554 S
C6     O16     1.274   .     A
C6     O17     1.272   1_565 A
C6     C87     1.472   1_565 S
C7     O19     1.261   .     A
C7     O18     1.261   1_556 A
C7     C23     1.476   1_556 S
O9     Y1      2.256   1_554 S
O9     C2      1.259   1_554 A
O10    Y0      2.262   1_655 S
O11    Y1      2.259   1_554 S
O11    C3      1.272   1_565 A
O12    Y0      2.258   1_556 S
O12    C4      1.261   1_556 A
O15    Y0      2.256   1_556 S
O15    C5      1.259   1_556 A
O16    Y1      2.262   1_455 S
O17    Y0      2.260   1_556 S
O17    C6      1.272   1_545 A
O18    Y1      2.258   1_554 S
O18    C7      1.261   1_554 A
C20    C25     1.407   .     A
C20    C26     1.483   .     S
C20    C21     1.407   1_554 A
C21    C22     1.398   .     A
C21    H38     1.083   .     S
C21    C20     1.407   1_556 A
C22    C23     1.403   1_556 A
C22    H39     1.083   1_655 S
C23    C24     1.403   .     A
C23    C22     1.403   1_554 A
C23    C7      1.476   1_554 S
C24    C25     1.398   .     A
C24    H40     1.083   .     S
C25    H41     1.083   .     S
C26    N27     1.358   .     A
C26    N31     1.359   1_554 A
N27    N28     1.332   .     A
N28    C29     1.358   .     A
C29    C32     1.484   .     S
C29    N30     1.358   1_554 A
N30    N31     1.332   .     A
N30    C29     1.358   1_556 A
N31    C26     1.359   1_556 A
C32    C37     1.407   .     A
C32    C33     1.407   1_554 A
C33    C34     1.398   .     A
C33    H42     1.083   .     S
C33    C32     1.407   1_556 A
C34    C35     1.403   1_556 A
C34    H43     1.083   1_655 S
C35    C36     1.403   .     A
C35    C34     1.403   1_554 A
C35    C4      1.476   1_655 S
C36    C37     1.398   .     A
C36    H44     1.083   .     S
C37    H45     1.083   .     S
H39    C22     1.083   1_455 S
H43    C34     1.083   1_455 S
C46    C52     1.483   .     S
C46    C47     1.407   1_556 A
C46    C51     1.406   1_545 A
C47    C48     1.398   .     A
C47    H64     1.083   .     S
C47    C46     1.407   1_554 A
C48    H65     1.083   .     S
C48    C49     1.403   1_554 A
C49    C48     1.403   1_556 A
C49    C50     1.404   1_545 A
C49    C5      1.475   1_556 S
C50    C51     1.397   .     A
C50    H66     1.083   .     S
C50    C49     1.404   1_565 A
C51    H67     1.083   .     S
C51    C46     1.406   1_565 A
C52    N53     1.358   1_545 A
C52    N57     1.358   1_556 A
N53    N54     1.332   .     A
N53    C52     1.358   1_565 A
N54    C55     1.358   1_565 A
C55    C58     1.483   .     S
C55    N54     1.358   1_545 A
C55    N56     1.358   1_556 A
N56    N57     1.332   .     A
N56    C55     1.358   1_554 A
N57    C52     1.358   1_554 A
C58    C59     1.407   1_556 A
C58    C63     1.407   1_545 A
C59    C60     1.397   .     A
C59    H68     1.083   .     S
C59    C58     1.407   1_554 A
C60    H69     1.083   .     S
C60    C61     1.404   1_554 A
C61    C60     1.404   1_556 A
C61    C62     1.403   1_545 A
C61    C2      1.475   1_545 S
C62    C63     1.398   .     A
C62    H70     1.083   .     S
C62    C61     1.403   1_565 A
C63    H71     1.083   .     S
C63    C58     1.407   1_565 A
C72    C78     1.483   .     S
C72    C73     1.407   1_455 A
C72    C77     1.407   1_545 A
C73    C74     1.397   .     A
C73    H90     1.083   .     S
C73    C72     1.407   1_655 A
C74    H91     1.083   .     S
C74    C75     1.403   1_655 A
C75    C74     1.403   1_455 A
C75    C76     1.401   1_545 A
C75    C3      1.472   1_455 S
C76    C77     1.398   .     A
C76    H92     1.081   .     S
C76    C75     1.401   1_565 A
C77    H93     1.083   .     S
C77    C72     1.407   1_565 A
C78    N79     1.358   1_545 A
C78    N83     1.358   1_455 A
N79    N80     1.332   .     A
N79    C78     1.358   1_565 A
N80    C81     1.358   1_565 A
C81    C84     1.483   .     S
C81    N80     1.358   1_545 A
C81    N82     1.358   1_455 A
N82    N83     1.332   .     A
N82    C81     1.358   1_655 A
N83    C78     1.358   1_655 A
C84    C85     1.407   1_455 A
C84    C89     1.407   1_545 A
C85    C86     1.398   .     A
C85    H94     1.083   .     S
C85    C84     1.407   1_655 A
C86    H95     1.081   .     S
C86    C87     1.401   1_655 A
C87    C86     1.401   1_455 A
C87    C88     1.403   1_545 A
C87    C6      1.472   1_545 S
C88    C89     1.397   .     A
C88    H96     1.083   .     S
C88    C87     1.403   1_565 A
C89    H97     1.083   .     S
C89    C84     1.407   1_565 A
