data_pcu+N394+E28
_audit_creation_date              2023-11-17
_audit_creation_method            'Materials Studio'
_symmetry_space_group_name_H-M    'P1'
_symmetry_Int_Tables_number       1
_symmetry_cell_setting            triclinic
loop_
_symmetry_equiv_pos_as_xyz
  x,y,z
_cell_length_a                    22.8627
_cell_length_b                    20.0949
_cell_length_c                    18.3565
_cell_angle_alpha                 71.9556
_cell_angle_beta                  110.6961
_cell_angle_gamma                 88.8986
loop_
_atom_site_label
_atom_site_type_symbol
_atom_site_fract_x
_atom_site_fract_y
_atom_site_fract_z
_atom_site_U_iso_or_equiv
_atom_site_adp_type
_atom_site_occupancy
Pr0    Pr    0.07087   0.99598  -0.00179   0.00000  Uiso   1.00
Pr1    Pr    0.93241  -0.00151   1.00278   0.00000  Uiso   1.00
O2     O     0.95114   0.11136   1.00218   0.00000  Uiso   1.00
O3     O     0.05143   0.10970  -0.00046   0.00000  Uiso   1.00
O4     O     0.13966   0.02709   0.93398   0.00000  Uiso   1.00
O5     O     0.17716   0.96501   0.06358   0.00000  Uiso   1.00
O6     O     1.03013   0.95243   0.09605   0.00000  Uiso   1.00
O7     O     0.09051   1.02938   0.11425   0.00000  Uiso   1.00
C8     C     0.94580   0.00160   0.85802   0.00000  Uiso   1.00
C9     C     1.00092   0.14120  -0.00020   0.00000  Uiso   1.00
C10    C     0.18862  -0.00391   0.99895   0.00000  Uiso   1.00
C11    C     0.81467  -0.00156   0.00205   0.00000  Uiso   1.00
C12    C     0.00243   0.85323   1.00135   0.00000  Uiso   1.00
C13    C     0.05750   0.99274   0.14304   0.00000  Uiso   1.00
O14    O     0.05220   0.88307  -0.00103   0.00000  Uiso   1.00
O15    O     0.95187   0.88476   1.00150   0.00000  Uiso   1.00
O16    O     0.86362   0.96737   0.06699   0.00000  Uiso   1.00
O17    O     0.82613   0.02954   0.93742   0.00000  Uiso   1.00
O18    O    -0.02687   0.04200   0.90492   0.00000  Uiso   1.00
O19    O     0.91286  -0.03511   0.88690   0.00000  Uiso   1.00
C20    C     1.00218   0.63849   1.00152   0.00000  Uiso   1.00
C21    C     1.05439   0.67361   0.99898   0.00000  Uiso   1.00
C22    C     1.05453   0.74313   0.99908   0.00000  Uiso   1.00
C23    C     1.00242   0.77932   1.00161   0.00000  Uiso   1.00
C24    C     0.95017   0.74420   0.00407   0.00000  Uiso   1.00
C25    C     0.95007   0.67465   0.00407   0.00000  Uiso   1.00
C26    C     1.00200   0.56473   1.00130   0.00000  Uiso   1.00
N27    N     0.95156   0.53070   0.00352   0.00000  Uiso   1.00
N28    N     0.95139   0.46450   0.00326   0.00000  Uiso   1.00
C29    C     1.00164   0.42943   1.00073   0.00000  Uiso   1.00
N30    N     1.05211   0.46343   0.99860   0.00000  Uiso   1.00
N31    N     1.05229   0.52962   0.99891   0.00000  Uiso   1.00
C32    C     1.00144   0.35569   1.00047   0.00000  Uiso   1.00
C33    C     1.05367   0.31940   0.99833   0.00000  Uiso   1.00
C34    C     1.05346   0.24994   0.99801   0.00000  Uiso   1.00
C35    C     1.00099   0.21504   0.99974   0.00000  Uiso   1.00
C36    C     0.94878   0.25133   0.00196   0.00000  Uiso   1.00
C37    C     0.94902   0.32076   0.00237   0.00000  Uiso   1.00
H38    H     1.09535   0.64744   0.99697   0.00000  Uiso   1.00
H39    H     1.09557   0.76848   0.99703   0.00000  Uiso   1.00
H40    H     0.90914   0.77040   0.00587   0.00000  Uiso   1.00
H41    H     0.90906   0.64926   0.00614   0.00000  Uiso   1.00
H42    H     1.09485   0.34463   0.99679   0.00000  Uiso   1.00
H43    H     1.09454   0.22368   0.99635   0.00000  Uiso   1.00
H44    H     0.90753   0.22619   0.00332   0.00000  Uiso   1.00
H45    H     0.90795   0.34705   0.00398   0.00000  Uiso   1.00
C46    C     0.37707   0.99681  -0.00007   0.00000  Uiso   1.00
C47    C     0.32452   1.03154   0.92682   0.00000  Uiso   1.00
C48    C     0.26331   1.03123   0.92652   0.00000  Uiso   1.00
C49    C     0.25329   0.99624  -0.00073   0.00000  Uiso   1.00
C50    C     0.30560  -0.03853   0.07233   0.00000  Uiso   1.00
C51    C     0.36684   0.96173   0.07268   0.00000  Uiso   1.00
C52    C     0.44205   0.99718   0.00028   0.00000  Uiso   1.00
N53    N     0.49283   0.96269   0.07041   0.00000  Uiso   1.00
N54    N     0.55117   0.96299   0.07071   0.00000  Uiso   1.00
C55    C     0.56128   0.99778   0.00089   0.00000  Uiso   1.00
N56    N     0.51051   1.03229   0.93077   0.00000  Uiso   1.00
N57    N     0.45216   1.03198   0.93047   0.00000  Uiso   1.00
C58    C     0.62626   0.99808   0.00122   0.00000  Uiso   1.00
C59    C     0.63654   1.03388   0.92871   0.00000  Uiso   1.00
C60    C     0.69776   1.03401   0.92901   0.00000  Uiso   1.00
C61    C     0.75000   0.99839   0.00176   0.00000  Uiso   1.00
C62    C     0.73994  -0.03731   0.07427   0.00000  Uiso   1.00
C63    C     0.67874   0.96250   0.07403   0.00000  Uiso   1.00
H64    H     0.33058   1.05904   0.86964   0.00000  Uiso   1.00
H65    H     0.22379   1.05844   0.86929   0.00000  Uiso   1.00
H66    H     0.29922  -0.06593   0.12931   0.00000  Uiso   1.00
H67    H     0.40614   0.93447   0.13010   0.00000  Uiso   1.00
H68    H     0.59729   1.06183   0.87152   0.00000  Uiso   1.00
H69    H     0.70418   1.06200   0.87221   0.00000  Uiso   1.00
H70    H     0.77940  -0.06522   0.13126   0.00000  Uiso   1.00
H71    H     0.67264   0.93440   0.13100   0.00000  Uiso   1.00
C72    C     0.02446   0.99505   0.35858   0.00000  Uiso   1.00
C73    C     1.06447   0.03924   0.33011   0.00000  Uiso   1.00
C74    C     1.07558   0.03824   0.26028   0.00000  Uiso   1.00
C75    C     0.04700   0.99301   0.21762   0.00000  Uiso   1.00
C76    C     0.00708   0.94888   0.24572   0.00000  Uiso   1.00
C77    C    -0.00410   0.94984   0.31550   0.00000  Uiso   1.00
C78    C     0.01251   0.99619   0.43256   0.00000  Uiso   1.00
N79    N    -0.02627   0.95379   0.46004   0.00000  Uiso   1.00
N80    N    -0.03705   0.95486   0.52642   0.00000  Uiso   1.00
C81    C    -0.00957   0.99845   0.56816   0.00000  Uiso   1.00
N82    N     0.02918   0.04087   0.54066   0.00000  Uiso   1.00
N83    N     0.04000   0.03976   0.47432   0.00000  Uiso   1.00
C84    C    -0.02146   0.99953   0.64220   0.00000  Uiso   1.00
C85    C     1.00645   0.04540   0.68464   0.00000  Uiso   1.00
C86    C     0.99540   0.04624   0.75455   0.00000  Uiso   1.00
C87    C    -0.04376   1.00135   0.78339   0.00000  Uiso   1.00
C88    C    -0.07170   0.95545   0.74137   0.00000  Uiso   1.00
C89    C    -0.06070   0.95455   0.67144   0.00000  Uiso   1.00
H90    H     1.08718   0.07479   0.36160   0.00000  Uiso   1.00
H91    H     1.10633   0.07307   0.23944   0.00000  Uiso   1.00
H92    H    -0.01565   0.91370   0.21361   0.00000  Uiso   1.00
H93    H    -0.03521   0.91516   0.33556   0.00000  Uiso   1.00
H94    H     1.03695   0.08071   0.66398   0.00000  Uiso   1.00
H95    H     1.01763   0.08194   0.78616   0.00000  Uiso   1.00
H96    H    -0.10184   0.92002   0.76280   0.00000  Uiso   1.00
H97    H    -0.08287   0.91846   0.64048   0.00000  Uiso   1.00
loop_
_geom_bond_atom_site_label_1
_geom_bond_atom_site_label_2
_geom_bond_distance
_geom_bond_site_symmetry_2
_ccdc_geom_bond_type
Pr0    O5      2.269   .     S
Pr0    O7      2.326   .     S
Pr0    O14     2.314   .     S
Pr0    O3      2.329   1_565 S
Pr0    O4      2.268   1_564 S
Pr0    O6      2.258   1_455 S
Pr0    O18     2.240   1_564 S
Pr1    O2      2.314   .     S
Pr1    O17     2.269   .     S
Pr1    O19     2.326   .     S
Pr1    O6      2.239   1_546 S
Pr1    O15     2.329   1_545 S
Pr1    O16     2.268   1_546 S
Pr1    O18     2.258   1_655 S
O2     C9      1.304   1_556 A
O3     Pr0     2.329   1_545 S
O3     C9      1.309   1_455 A
O4     C10     1.278   .     A
O4     Pr0     2.268   1_546 S
O5     C10     1.278   1_564 A
O6     Pr0     2.258   1_655 S
O6     Pr1     2.239   1_564 S
O6     C13     1.365   1_655 S
O7     C13     1.206   .     D
C8     O19     1.206   .     D
C8     O18     1.365   1_655 S
C8     C87     1.473   1_645 S
C9     O2      1.304   1_554 A
C9     O3      1.309   1_655 A
C9     C35     1.484   1_554 S
C10    O5      1.278   1_546 A
C10    C49     1.477   1_546 S
C11    O16     1.278   1_545 A
C11    O17     1.278   1_554 A
C11    C61     1.477   1_545 S
C12    O14     1.304   1_556 A
C12    O15     1.309   1_455 A
C12    C23     1.484   1_455 S
C13    C75     1.473   .     S
C13    O6      1.365   1_455 S
O14    C12     1.304   1_554 A
O15    Pr1     2.329   1_565 S
O15    C12     1.309   1_655 A
O16    Pr1     2.268   1_564 S
O16    C11     1.278   1_565 A
O17    C11     1.278   1_556 A
O18    Pr0     2.240   1_546 S
O18    Pr1     2.258   1_455 S
O18    C8      1.365   1_455 S
C20    C21     1.406   .     A
C20    C26     1.484   .     S
C20    C25     1.406   1_556 A
C21    C22     1.398   .     A
C21    H38     1.083   .     S
C22    C23     1.406   .     A
C22    H39     1.083   .     S
C23    C24     1.406   1_556 A
C23    C12     1.484   1_655 S
C24    C25     1.398   .     A
C24    H40     1.083   .     S
C24    C23     1.406   1_554 A
C25    H41     1.083   .     S
C25    C20     1.406   1_554 A
C26    N31     1.358   .     A
C26    N27     1.358   1_556 A
N27    N28     1.332   .     A
N27    C26     1.358   1_554 A
N28    C29     1.358   1_554 A
C29    N30     1.358   .     A
C29    C32     1.483   .     S
C29    N28     1.358   1_556 A
N30    N31     1.332   .     A
C32    C33     1.406   .     A
C32    C37     1.406   1_556 A
C33    C34     1.398   .     A
C33    H42     1.083   .     S
C34    C35     1.406   .     A
C34    H43     1.083   .     S
C35    C36     1.406   1_556 A
C35    C9      1.484   1_556 S
C36    C37     1.398   .     A
C36    H44     1.083   .     S
C36    C35     1.406   1_554 A
C37    H45     1.083   .     S
C37    C32     1.406   1_554 A
C46    C51     1.407   .     A
C46    C52     1.484   .     S
C46    C47     1.407   1_554 A
C47    C48     1.398   .     A
C47    H64     1.083   .     S
C47    C46     1.407   1_556 A
C48    H65     1.083   .     S
C48    C49     1.404   1_556 A
C49    C48     1.404   1_554 A
C49    C50     1.404   1_565 A
C49    C10     1.477   1_564 S
C50    H66     1.083   .     S
C50    C49     1.404   1_545 A
C50    C51     1.398   1_545 A
C51    H67     1.083   .     S
C51    C50     1.398   1_565 A
C52    N53     1.358   .     A
C52    N57     1.358   1_554 A
N53    N54     1.332   .     A
N54    C55     1.358   .     A
C55    C58     1.484   .     S
C55    N56     1.358   1_554 A
N56    N57     1.332   .     A
N56    C55     1.358   1_556 A
N57    C52     1.358   1_556 A
C58    C63     1.407   .     A
C58    C59     1.407   1_554 A
C59    C60     1.398   .     A
C59    H68     1.083   .     S
C59    C58     1.407   1_556 A
C60    H69     1.083   .     S
C60    C61     1.404   1_556 A
C61    C60     1.404   1_554 A
C61    C62     1.404   1_565 A
C61    C11     1.477   1_565 S
C62    H70     1.083   .     S
C62    C61     1.404   1_545 A
C62    C63     1.398   1_545 A
C63    H71     1.083   .     S
C63    C62     1.398   1_565 A
C72    C77     1.407   .     A
C72    C78     1.484   .     S
C72    C73     1.407   1_465 A
C73    C74     1.398   .     A
C73    H90     1.083   .     S
C73    C72     1.407   1_645 A
C74    H91     1.083   .     S
C74    C75     1.403   1_645 A
C75    C76     1.402   .     A
C75    C74     1.403   1_465 A
C76    C77     1.398   .     A
C76    H92     1.083   .     S
C77    H93     1.083   .     S
C78    N79     1.358   .     A
C78    N83     1.358   1_565 A
N79    N80     1.332   .     A
N80    C81     1.358   .     A
C81    C84     1.483   .     S
C81    N82     1.358   1_565 A
N82    N83     1.332   .     A
N82    C81     1.358   1_545 A
N83    C78     1.358   1_545 A
C84    C89     1.407   .     A
C84    C85     1.407   1_465 A
C85    C86     1.398   .     A
C85    H94     1.083   .     S
C85    C84     1.407   1_645 A
C86    H95     1.083   .     S
C86    C87     1.402   1_645 A
C87    C88     1.403   .     A
C87    C86     1.402   1_465 A
C87    C8      1.473   1_465 S
C88    C89     1.398   .     A
C88    H96     1.083   .     S
C89    H97     1.083   .     S
