data_pcu+N205+E35
_audit_creation_date              2023-11-17
_audit_creation_method            'Materials Studio'
_symmetry_space_group_name_H-M    'P1'
_symmetry_Int_Tables_number       1
_symmetry_cell_setting            triclinic
loop_
_symmetry_equiv_pos_as_xyz
  x,y,z
_cell_length_a                    15.8245
_cell_length_b                    18.7305
_cell_length_c                    14.9761
_cell_angle_alpha                 83.9164
_cell_angle_beta                  98.0557
_cell_angle_gamma                 97.6822
loop_
_atom_site_label
_atom_site_type_symbol
_atom_site_fract_x
_atom_site_fract_y
_atom_site_fract_z
_atom_site_U_iso_or_equiv
_atom_site_adp_type
_atom_site_occupancy
Y0     Y     0.04218   0.09383  -0.01581   0.00000  Uiso   1.00
Y1     Y     0.96019   0.90160   0.99635   0.00000  Uiso   1.00
C2     C     0.79347   0.92192   0.99244   0.00000  Uiso   1.00
C3     C     0.98924  -0.00098   0.15275   0.00000  Uiso   1.00
C4     C     0.04701   0.23807  -0.00914   0.00000  Uiso   1.00
C5     C     0.19846   0.04867  -0.01143   0.00000  Uiso   1.00
C6     C    -0.01085   1.00309   0.82221   0.00000  Uiso   1.00
C7     C     0.99114   0.76334   0.99852   0.00000  Uiso   1.00
O8     O     0.84696   0.96472   0.95208   0.00000  Uiso   1.00
O9     O     0.82608   0.86815   0.03417   0.00000  Uiso   1.00
O10    O     0.96295   0.04853   0.09496   0.00000  Uiso   1.00
O11    O     1.01963   0.94640   0.12679   0.00000  Uiso   1.00
O12    O     0.01659   0.20543   0.92195   0.00000  Uiso   1.00
O13    O     0.07616   0.19614   0.05587   0.00000  Uiso   1.00
O14    O     0.15096   0.03125   0.05003   0.00000  Uiso   1.00
O15    O     0.16533   0.08986   0.92521   0.00000  Uiso   1.00
O16    O     0.01848   0.95011   0.87161   0.00000  Uiso   1.00
O17    O    -0.03490   0.05417   0.85818   0.00000  Uiso   1.00
O18    O     1.02515   0.80467   0.05841   0.00000  Uiso   1.00
O19    O     0.94141   0.79386   0.93730   0.00000  Uiso   1.00
C20    C     1.03203   0.54189   0.00445   0.00000  Uiso   1.00
C21    C     0.07859   0.58494   1.07057   0.00000  Uiso   1.00
C22    C     0.06551   0.65740   1.06844   0.00000  Uiso   1.00
C23    C     0.00698   0.68732   0.00038   0.00000  Uiso   1.00
C24    C     0.96309   0.64315  -0.06538   0.00000  Uiso   1.00
N25    N     0.97649   0.57268  -0.06167   0.00000  Uiso   1.00
C26    C     1.04080   0.46408   0.00355   0.00000  Uiso   1.00
N27    N     1.01021   0.43122  -0.07342   0.00000  Uiso   1.00
C28    C     1.01287   0.35970  -0.07948   0.00000  Uiso   1.00
C29    C     0.04728   0.31640  -0.00466   0.00000  Uiso   1.00
C30    C     0.07942   0.34877   1.07537   0.00000  Uiso   1.00
C31    C     0.07614   0.42239   1.07996   0.00000  Uiso   1.00
H32    H     0.10120   0.69001   1.11996   0.00000  Uiso   1.00
H33    H     0.91768   0.66434  -0.11929   0.00000  Uiso   1.00
H34    H     0.98726   0.33668  -0.14244   0.00000  Uiso   1.00
H35    H     0.10584   0.31694   1.13483   0.00000  Uiso   1.00
H36    H     0.12530   0.56386   1.12293   0.00000  Uiso   1.00
H37    H     0.09918   0.44522   1.14345   0.00000  Uiso   1.00
C38    C     0.44648  -0.01912  -0.00538   0.00000  Uiso   1.00
C39    C     0.39652   0.95436   1.06430   0.00000  Uiso   1.00
C40    C     0.31521   0.97617   1.06209   0.00000  Uiso   1.00
C41    C     0.28359   0.02423  -0.00909   0.00000  Uiso   1.00
C42    C     0.33526   0.04946  -0.07732   0.00000  Uiso   1.00
N43    N     0.41438   0.02780  -0.07351   0.00000  Uiso   1.00
C44    C     0.53457  -0.03773  -0.00530   0.00000  Uiso   1.00
N45    N     0.58964   0.00800  -0.05327   0.00000  Uiso   1.00
C46    C     0.67197  -0.00423  -0.05571   0.00000  Uiso   1.00
C47    C     0.70333  -0.06575  -0.00790   0.00000  Uiso   1.00
C48    C     0.64754   0.88556   1.04070   0.00000  Uiso   1.00
C49    C     0.56312   0.89920   1.04205   0.00000  Uiso   1.00
H50    H     0.27736   0.95591   1.11634   0.00000  Uiso   1.00
H51    H     0.31324   0.08688  -0.13318   0.00000  Uiso   1.00
H52    H     0.71296   0.03446  -0.09439   0.00000  Uiso   1.00
H53    H     0.66926   0.83714   1.07785   0.00000  Uiso   1.00
H54    H     0.42026   0.91872   1.12117   0.00000  Uiso   1.00
H55    H     0.52098   0.86025   1.07888   0.00000  Uiso   1.00
C56    C    -0.02081   0.01013   0.43510   0.00000  Uiso   1.00
C57    C     0.94528   0.06308   0.37140   0.00000  Uiso   1.00
C58    C     0.94859   0.05940   0.27939   0.00000  Uiso   1.00
C59    C    -0.01536   0.00291   0.25009   0.00000  Uiso   1.00
C60    C     0.01649   0.95049   0.31551   0.00000  Uiso   1.00
N61    N     0.01306   0.95545   0.40479   0.00000  Uiso   1.00
C62    C    -0.02082   1.01088   0.53422   0.00000  Uiso   1.00
N63    N    -0.00108   0.95100   0.58904   0.00000  Uiso   1.00
C64    C     0.00203   0.94709   0.68057   0.00000  Uiso   1.00
C65    C    -0.01534   0.00606   0.72256   0.00000  Uiso   1.00
C66    C     0.96424   0.06843   0.66771   0.00000  Uiso   1.00
C67    C     0.96190   0.07131   0.57391   0.00000  Uiso   1.00
H68    H     0.92259   0.10071   0.23117   0.00000  Uiso   1.00
H69    H     0.04447   0.90575   0.29598   0.00000  Uiso   1.00
H70    H     0.01816   0.89790   0.72025   0.00000  Uiso   1.00
H71    H     0.95123   0.11548   0.69735   0.00000  Uiso   1.00
H72    H     0.91569   0.10669   0.39105   0.00000  Uiso   1.00
H73    H     0.94819   0.12097   0.53431   0.00000  Uiso   1.00
loop_
_geom_bond_atom_site_label_1
_geom_bond_atom_site_label_2
_geom_bond_distance
_geom_bond_site_symmetry_2
_ccdc_geom_bond_type
Y0     O13     2.261   .     S
Y0     O14     2.265   .     S
Y0     O10     2.246   1_455 S
Y0     O12     2.260   1_554 S
Y0     O15     2.262   1_554 S
Y0     O17     2.238   1_554 S
Y1     O8      2.262   .     S
Y1     O19     2.255   .     S
Y1     O9      2.264   1_556 S
Y1     O11     2.242   1_556 S
Y1     O16     2.251   1_655 S
Y1     O18     2.256   1_556 S
C2     O8      1.258   .     A
C2     O9      1.259   1_556 A
C2     C47     1.475   1_566 S
C3     O10     1.271   .     A
C3     O11     1.270   1_545 A
C3     C59     1.480   1_655 S
C4     O13     1.260   .     A
C4     C29     1.475   .     S
C4     O12     1.259   1_554 A
C5     O14     1.258   .     A
C5     C41     1.474   .     S
C5     O15     1.258   1_554 A
C6     O16     1.272   .     A
C6     O17     1.271   1_565 A
C6     C65     1.479   1_565 S
C7     O19     1.262   .     A
C7     O18     1.262   1_556 A
C7     C23     1.475   1_656 S
O9     Y1      2.264   1_554 S
O9     C2      1.259   1_554 A
O10    Y0      2.246   1_655 S
O11    Y1      2.242   1_554 S
O11    C3      1.270   1_565 A
O12    Y0      2.260   1_556 S
O12    C4      1.259   1_556 A
O15    Y0      2.262   1_556 S
O15    C5      1.258   1_556 A
O16    Y1      2.251   1_455 S
O17    Y0      2.238   1_556 S
O17    C6      1.271   1_545 A
O18    Y1      2.256   1_554 S
O18    C7      1.262   1_554 A
C20    N25     1.362   .     A
C20    C26     1.484   .     S
C20    C21     1.407   1_654 A
C21    C22     1.396   .     A
C21    H36     1.080   .     S
C21    C20     1.407   1_456 A
C22    H32     1.083   .     S
C22    C23     1.401   1_556 A
C23    C22     1.401   1_554 A
C23    C24     1.402   1_455 A
C23    C7      1.475   1_454 S
C24    N25     1.359   .     A
C24    H33     1.082   .     S
C24    C23     1.402   1_655 A
C26    N27     1.362   .     A
C26    C31     1.407   1_654 A
N27    C28     1.359   .     A
C28    H34     1.082   .     S
C28    C29     1.401   1_655 A
C29    C28     1.401   1_455 A
C29    C30     1.401   1_554 A
C30    C31     1.396   .     A
C30    H35     1.083   .     S
C30    C29     1.401   1_556 A
C31    H37     1.080   .     S
C31    C26     1.407   1_456 A
C38    N43     1.362   .     A
C38    C44     1.481   .     S
C38    C39     1.406   1_544 A
C39    C40     1.396   .     A
C39    H54     1.081   .     S
C39    C38     1.406   1_566 A
C40    H50     1.083   .     S
C40    C41     1.402   1_566 A
C41    C42     1.402   .     A
C41    C40     1.402   1_544 A
C42    N43     1.359   .     A
C42    H51     1.082   .     S
C44    N45     1.362   .     A
C44    C49     1.406   1_544 A
N45    C46     1.359   .     A
C46    C47     1.402   .     A
C46    H52     1.083   .     S
C47    C48     1.402   1_544 A
C47    C2      1.475   1_544 S
C48    C49     1.397   .     A
C48    H53     1.083   .     S
C48    C47     1.402   1_566 A
C49    H55     1.081   .     S
C49    C44     1.406   1_566 A
C56    C57     1.407   1_455 A
C56    N61     1.362   1_545 A
C56    C62     1.486   1_545 S
C57    C58     1.396   .     A
C57    H72     1.079   .     S
C57    C56     1.407   1_655 A
C58    H68     1.083   .     S
C58    C59     1.403   1_655 A
C59    C58     1.403   1_455 A
C59    C60     1.403   1_545 A
C59    C3      1.480   1_455 S
C60    N61     1.359   .     A
C60    H69     1.082   .     S
C60    C59     1.403   1_565 A
N61    C56     1.362   1_565 A
C62    N63     1.362   .     A
C62    C56     1.486   1_565 S
C62    C67     1.407   1_465 A
N63    C64     1.359   .     A
C64    H70     1.082   .     S
C64    C65     1.403   1_565 A
C65    C64     1.403   1_545 A
C65    C66     1.403   1_455 A
C65    C6      1.479   1_545 S
C66    C67     1.396   .     A
C66    H71     1.083   .     S
C66    C65     1.403   1_655 A
C67    H73     1.079   .     S
C67    C62     1.407   1_645 A
