data_pcu+N106+E9
_audit_creation_date              2023-11-17
_audit_creation_method            'Materials Studio'
_symmetry_space_group_name_H-M    'P1'
_symmetry_Int_Tables_number       1
_symmetry_cell_setting            triclinic
loop_
_symmetry_equiv_pos_as_xyz
  x,y,z
_cell_length_a                    22.5307
_cell_length_b                    19.5889
_cell_length_c                    18.1457
_cell_angle_alpha                 76.5821
_cell_angle_beta                  60.6730
_cell_angle_gamma                 85.5829
loop_
_atom_site_label
_atom_site_type_symbol
_atom_site_fract_x
_atom_site_fract_y
_atom_site_fract_z
_atom_site_U_iso_or_equiv
_atom_site_adp_type
_atom_site_occupancy
Y0     Y     0.92170   0.00682   0.01721   0.00000  Uiso   1.00
Y1     Y     0.07590   0.99915   0.98183   0.00000  Uiso   1.00
O2     O     0.95119   0.12120  -0.01269   0.00000  Uiso   1.00
O3     O     1.02497   0.04551   0.90254   0.00000  Uiso   1.00
C4     C     0.19350   0.99992   0.98651   0.00000  Uiso   1.00
O5     O     0.10346   0.97323   0.85334   0.00000  Uiso   1.00
O6     O     0.80864  -0.01720   0.08046   0.00000  Uiso   1.00
O7     O     0.86031   0.02938   0.94713   0.00000  Uiso   1.00
O8     O     0.04364   0.10817   1.00605   0.00000  Uiso   1.00
O9     O    -0.02737   0.96043   0.09649   0.00000  Uiso   1.00
O10    O     0.89412   0.03269   0.14573   0.00000  Uiso   1.00
O11    O     0.95401   0.89785  -0.00715   0.00000  Uiso   1.00
C12    C    -0.00262   0.14596   0.99708   0.00000  Uiso   1.00
O13    O     0.04636   0.88478   1.01179   0.00000  Uiso   1.00
C14    C     0.05999   1.00631   0.84151   0.00000  Uiso   1.00
O15    O     0.18898   1.02306   0.91862   0.00000  Uiso   1.00
O16    O     0.13723   0.97662   0.05199   0.00000  Uiso   1.00
C17    C     0.80406   0.00600   0.01261   0.00000  Uiso   1.00
C18    C     1.00025   0.86004   0.00186   0.00000  Uiso   1.00
C19    C     0.93756  -0.00044   0.15759   0.00000  Uiso   1.00
C20    C    -0.00064   0.64694   1.00057   0.00000  Uiso   1.00
N21    N     0.04639   0.67494   0.01262   0.00000  Uiso   1.00
N22    N     0.04666   0.74283   0.01309   0.00000  Uiso   1.00
C23    C    -0.00010   0.78520   1.00152   0.00000  Uiso   1.00
N24    N    -0.04713   0.75719   0.98948   0.00000  Uiso   1.00
N25    N    -0.04736   0.68932   0.98895   0.00000  Uiso   1.00
C26    C    -0.00079   0.57216   0.99975   0.00000  Uiso   1.00
N27    N    -0.04732   0.54435   0.98668   0.00000  Uiso   1.00
N28    N    -0.04745   0.47652   0.98591   0.00000  Uiso   1.00
C29    C    -0.00105   0.43402   0.99819   0.00000  Uiso   1.00
N30    N     0.04548   0.46183   0.01126   0.00000  Uiso   1.00
N31    N     0.04561   0.52966   0.01201   0.00000  Uiso   1.00
C32    C    -0.00132   0.35920   0.99759   0.00000  Uiso   1.00
N33    N     0.04554   0.31687   0.00890   0.00000  Uiso   1.00
N34    N     0.04516   0.24894   0.00866   0.00000  Uiso   1.00
C35    C    -0.00217   0.22084   0.99722   0.00000  Uiso   1.00
N36    N    -0.04905   0.26317   0.98593   0.00000  Uiso   1.00
N37    N    -0.04863   0.33111   0.98611   0.00000  Uiso   1.00
C38    C     0.37561   0.00137   0.99433   0.00000  Uiso   1.00
N39    N     0.31668  -0.02482   0.06715   0.00000  Uiso   1.00
N40    N     0.25860  -0.02532   0.06462   0.00000  Uiso   1.00
C41    C     0.25739   0.00036   0.98921   0.00000  Uiso   1.00
N42    N     0.31625   1.02655   0.91638   0.00000  Uiso   1.00
N43    N     0.37433   0.02704   0.91891   0.00000  Uiso   1.00
C44    C     0.43962   0.00203   0.99711   0.00000  Uiso   1.00
N45    N     0.49854   0.02817   0.92427   0.00000  Uiso   1.00
N46    N     0.55661   0.02887   0.92677   0.00000  Uiso   1.00
C47    C     0.55788   0.00346   1.00223   0.00000  Uiso   1.00
N48    N     0.49896  -0.02268   0.07509   0.00000  Uiso   1.00
N49    N     0.44089  -0.02338   0.07258   0.00000  Uiso   1.00
C50    C     0.62189   0.00420   1.00499   0.00000  Uiso   1.00
N51    N     0.62319  -0.02123   0.08044   0.00000  Uiso   1.00
N52    N     0.68130  -0.02060   0.08289   0.00000  Uiso   1.00
C53    C     0.74015   0.00548   1.00999   0.00000  Uiso   1.00
N54    N     0.73891   1.03093   0.93455   0.00000  Uiso   1.00
N55    N     0.68081   0.03029   0.93209   0.00000  Uiso   1.00
C56    C     0.97277   0.00028   0.36289   0.00000  Uiso   1.00
N57    N     0.01101   0.96167   0.30352   0.00000  Uiso   1.00
N58    N    -0.00048   0.96128   0.23823   0.00000  Uiso   1.00
C59    C     0.94942  -0.00051   0.23000   0.00000  Uiso   1.00
N60    N     0.91118   0.03816   0.28923   0.00000  Uiso   1.00
N61    N     0.92261   0.03849   0.35459   0.00000  Uiso   1.00
C62    C     0.98581   0.00112   0.43445   0.00000  Uiso   1.00
N63    N     0.94752   0.03962   0.49394   0.00000  Uiso   1.00
N64    N     0.95961   0.04066   0.55858   0.00000  Uiso   1.00
C65    C     1.01041   0.00324   0.56610   0.00000  Uiso   1.00
N66    N     1.04869   0.96475   0.50661   0.00000  Uiso   1.00
N67    N     1.03661   0.96371   0.44197   0.00000  Uiso   1.00
C68    C     1.02367   0.00434   0.63742   0.00000  Uiso   1.00
N69    N     0.07399   0.96631   0.64551   0.00000  Uiso   1.00
N70    N     0.08587   0.96714   0.71038   0.00000  Uiso   1.00
C71    C     1.04792   0.00615   0.76932   0.00000  Uiso   1.00
N72    N     0.99770   0.04424   0.76124   0.00000  Uiso   1.00
N73    N     0.98579   0.04337   0.69642   0.00000  Uiso   1.00
loop_
_geom_bond_atom_site_label_1
_geom_bond_atom_site_label_2
_geom_bond_distance
_geom_bond_site_symmetry_2
_ccdc_geom_bond_type
Y0     O2      2.251   .     S
Y0     O6      2.258   .     S
Y0     O10     2.272   .     S
Y0     O3      2.262   1_554 S
Y0     O7      2.257   1_554 S
Y0     O9      2.250   1_645 S
Y0     O11     2.273   1_545 S
Y1     O5      2.272   .     S
Y1     O13     2.251   .     S
Y1     O15     2.258   .     S
Y1     O3      2.250   1_465 S
Y1     O8      2.273   1_565 S
Y1     O9      2.262   1_556 S
Y1     O16     2.257   1_556 S
O2     C12     1.284   1_654 A
O3     Y0      2.262   1_556 S
O3     Y1      2.250   1_645 S
O3     C14     1.373   1_645 S
C4     O15     1.261   .     A
C4     O16     1.261   1_556 A
C4     C41     1.465   1_565 S
O5     C14     1.212   .     D
O6     C17     1.261   .     A
O7     Y0      2.257   1_556 S
O7     C17     1.261   1_556 A
O8     C12     1.285   .     A
O8     Y1      2.273   1_545 S
O9     Y0      2.250   1_465 S
O9     Y1      2.262   1_554 S
O9     C19     1.373   1_465 S
O10    C19     1.212   .     D
O11    C18     1.285   .     A
O11    Y0      2.273   1_565 S
C12    C35     1.468   .     S
C12    O2      1.284   1_456 A
O13    C18     1.284   1_456 A
C14    O3      1.373   1_465 S
C14    C71     1.463   1_465 S
O16    Y1      2.257   1_554 S
O16    C4      1.261   1_554 A
C17    O7      1.261   1_554 A
C17    C53     1.465   1_554 S
C18    O13     1.284   1_654 A
C18    C23     1.468   1_654 S
C19    C59     1.463   .     S
C19    O9      1.373   1_645 S
C20    N25     1.358   .     A
C20    C26     1.469   .     S
C20    N21     1.358   1_556 A
N21    N22     1.332   .     A
N21    C20     1.358   1_554 A
N22    C23     1.358   1_554 A
C23    N24     1.358   .     A
C23    N22     1.358   1_556 A
C23    C18     1.468   1_456 S
N24    N25     1.332   .     A
C26    N27     1.358   .     A
C26    N31     1.358   1_556 A
N27    N28     1.332   .     A
N28    C29     1.358   .     A
C29    C32     1.469   .     S
C29    N30     1.358   1_556 A
N30    N31     1.332   .     A
N30    C29     1.358   1_554 A
N31    C26     1.358   1_554 A
C32    N37     1.358   .     A
C32    N33     1.358   1_556 A
N33    N34     1.332   .     A
N33    C32     1.358   1_554 A
N34    C35     1.358   1_554 A
C35    N36     1.358   .     A
C35    N34     1.358   1_556 A
N36    N37     1.332   .     A
C38    N43     1.358   .     A
C38    C44     1.469   .     S
C38    N39     1.358   1_556 A
N39    N40     1.332   .     A
N39    C38     1.358   1_554 A
N40    C41     1.357   1_554 A
C41    N40     1.357   1_556 A
C41    N42     1.357   1_545 A
C41    C4      1.465   1_545 S
N42    C41     1.357   1_565 A
N42    N43     1.332   1_565 A
N43    N42     1.332   1_545 A
C44    N45     1.358   .     A
C44    N49     1.358   1_556 A
N45    N46     1.332   .     A
N46    C47     1.358   .     A
C47    C50     1.469   .     S
C47    N48     1.358   1_556 A
N48    N49     1.333   .     A
N48    C47     1.358   1_554 A
N49    C44     1.358   1_554 A
C50    N55     1.358   .     A
C50    N51     1.358   1_556 A
N51    N52     1.333   .     A
N51    C50     1.358   1_554 A
N52    C53     1.357   1_554 A
C53    N52     1.357   1_556 A
C53    N54     1.357   1_545 A
C53    C17     1.465   1_556 S
N54    C53     1.357   1_565 A
N54    N55     1.333   1_565 A
N55    N54     1.333   1_545 A
C56    N61     1.358   .     A
C56    C62     1.469   .     S
C56    N57     1.358   1_645 A
N57    N58     1.332   .     A
N57    C56     1.358   1_465 A
N58    C59     1.356   1_465 A
C59    N60     1.357   .     A
C59    N58     1.356   1_645 A
N60    N61     1.333   .     A
C62    N63     1.358   .     A
C62    N67     1.358   1_545 A
N63    N64     1.332   .     A
N64    C65     1.358   .     A
C65    C68     1.469   .     S
C65    N66     1.358   1_545 A
N66    N67     1.332   .     A
N66    C65     1.358   1_565 A
N67    C62     1.358   1_565 A
C68    N73     1.358   .     A
C68    N69     1.358   1_645 A
N69    N70     1.332   .     A
N69    C68     1.358   1_465 A
N70    C71     1.357   1_465 A
C71    N72     1.356   .     A
C71    N70     1.357   1_645 A
C71    C14     1.463   1_645 S
N72    N73     1.332   .     A
