data_pcu+N123+E8
_audit_creation_date              2023-11-17
_audit_creation_method            'Materials Studio'
_symmetry_space_group_name_H-M    'P1'
_symmetry_Int_Tables_number       1
_symmetry_cell_setting            triclinic
loop_
_symmetry_equiv_pos_as_xyz
  x,y,z
_cell_length_a                    16.3525
_cell_length_b                    13.5745
_cell_length_c                    12.2591
_cell_angle_alpha                 113.2195
_cell_angle_beta                  96.8749
_cell_angle_gamma                 84.2834
loop_
_atom_site_label
_atom_site_type_symbol
_atom_site_fract_x
_atom_site_fract_y
_atom_site_fract_z
_atom_site_U_iso_or_equiv
_atom_site_adp_type
_atom_site_occupancy
Ce0    Ce    0.09671   0.99552   0.98569   0.00000  Uiso   1.00
Ce1    Ce    0.90349   0.00466   0.01449   0.00000  Uiso   1.00
C2     C     0.95144   0.98572   0.79770   0.00000  Uiso   1.00
C3     C     0.26028   0.98542   0.96877   0.00000  Uiso   1.00
C4     C     1.01659   0.78489  -0.00312   0.00000  Uiso   1.00
C5     C     0.04875   0.01450   0.20249   0.00000  Uiso   1.00
C6     C     0.73991   0.01476   0.03140   0.00000  Uiso   1.00
C7     C    -0.01639   0.21531   1.00332   0.00000  Uiso   1.00
O8     O     0.89563   0.04612   0.84585   0.00000  Uiso   1.00
O9     O    -0.01494   0.92731   0.86233   0.00000  Uiso   1.00
O10    O     0.20948   0.93785   0.87977   0.00000  Uiso   1.00
O11    O     0.22763   1.03805   0.06641   0.00000  Uiso   1.00
O12    O     0.08303   0.82712  -0.01094   0.00000  Uiso   1.00
O13    O     0.94347   0.83382   0.00858   0.00000  Uiso   1.00
O14    O     0.10458   0.95412   0.15436   0.00000  Uiso   1.00
O15    O     1.01512   0.07289   0.13785   0.00000  Uiso   1.00
O16    O     0.79071   0.06233   0.12040   0.00000  Uiso   1.00
O17    O     0.77257  -0.03788   0.93376   0.00000  Uiso   1.00
O18    O     0.91716   0.17306   1.01111   0.00000  Uiso   1.00
O19    O     0.05673   0.16638   0.99163   0.00000  Uiso   1.00
C20    C     0.96189   0.52932   0.00548   0.00000  Uiso   1.00
C21    C     0.03831   0.47089   0.99475   0.00000  Uiso   1.00
N22    N     0.10622   0.51553   0.98467   0.00000  Uiso   1.00
C23    C     0.10125   0.61620   0.98484   0.00000  Uiso   1.00
C24    C     0.02471   0.67523   0.99557   0.00000  Uiso   1.00
N25    N     0.95683   0.62979   0.00567   0.00000  Uiso   1.00
N26    N     0.89398   0.48468   0.01557   0.00000  Uiso   1.00
C27    C     0.89895   0.38401   0.01540   0.00000  Uiso   1.00
C28    C     0.97548   0.32497   0.00465   0.00000  Uiso   1.00
N29    N     0.04337   0.37042   0.99456   0.00000  Uiso   1.00
H30    H     0.15655   0.64958   0.97678   0.00000  Uiso   1.00
H31    H     0.84365   0.35063   0.02345   0.00000  Uiso   1.00
C32    C     0.48308   0.02807   0.05466   0.00000  Uiso   1.00
C33    C     0.51712   0.97202   0.94552   0.00000  Uiso   1.00
N34    N     0.46688   0.92147   0.84620   0.00000  Uiso   1.00
C35    C     0.38397   0.92432   0.85100   0.00000  Uiso   1.00
C36    C     0.34963   0.98038   0.96016   0.00000  Uiso   1.00
N37    N     0.40032   0.03105   0.05951   0.00000  Uiso   1.00
N38    N     0.53332   0.07867   0.15397   0.00000  Uiso   1.00
C39    C     0.61623   0.07583   0.14917   0.00000  Uiso   1.00
C40    C     0.65056   0.01977   0.04001   0.00000  Uiso   1.00
N41    N     0.59987   0.96910   0.94066   0.00000  Uiso   1.00
H42    H     0.34535   0.88331   0.77043   0.00000  Uiso   1.00
H43    H     0.65485   0.11684   0.22974   0.00000  Uiso   1.00
C44    C     0.03349   0.96478   0.47538   0.00000  Uiso   1.00
C45    C     0.96671   0.03547   0.52483   0.00000  Uiso   1.00
N46    N     0.92826   0.09783   0.46834   0.00000  Uiso   1.00
C47    C     0.95365   0.09286   0.36453   0.00000  Uiso   1.00
C48    C     1.02053   0.02237   0.31496   0.00000  Uiso   1.00
N49    N     0.05885   0.95980   0.37177   0.00000  Uiso   1.00
N50    N     0.07195   0.90243   0.53187   0.00000  Uiso   1.00
C51    C     0.04655   0.90738   0.63567   0.00000  Uiso   1.00
C52    C    -0.02034   0.97786   0.68523   0.00000  Uiso   1.00
N53    N     0.94135   0.04045   0.62844   0.00000  Uiso   1.00
H54    H     0.92194   0.14340   0.32124   0.00000  Uiso   1.00
H55    H     0.07833   0.85695   0.67906   0.00000  Uiso   1.00
loop_
_geom_bond_atom_site_label_1
_geom_bond_atom_site_label_2
_geom_bond_distance
_geom_bond_site_symmetry_2
_ccdc_geom_bond_type
Ce0    O9      2.247   .     S
Ce0    O10     2.277   .     S
Ce0    O11     2.277   1_556 S
Ce0    O12     2.336   1_556 S
Ce0    O14     2.334   1_556 S
Ce0    O15     2.266   1_466 S
Ce0    O19     2.321   1_565 S
Ce1    O15     2.247   .     S
Ce1    O16     2.277   .     S
Ce1    O8      2.334   1_554 S
Ce1    O9      2.266   1_644 S
Ce1    O13     2.321   1_545 S
Ce1    O17     2.277   1_554 S
Ce1    O18     2.336   1_554 S
C2     O8      1.205   1_565 D
C2     O9      1.365   1_655 S
C2     C52     1.467   1_655 S
C3     O10     1.277   .     A
C3     C36     1.470   .     S
C3     O11     1.277   1_556 A
C4     O13     1.304   .     A
C4     O12     1.308   1_655 A
C4     C24     1.475   1_654 S
C5     O14     1.205   1_545 D
C5     O15     1.365   1_455 S
C5     C48     1.467   1_455 S
C6     O16     1.277   .     A
C6     C40     1.470   .     S
C6     O17     1.277   1_554 A
C7     O19     1.304   .     A
C7     O18     1.308   1_455 A
C7     C28     1.475   1_456 S
O8     Ce1     2.334   1_556 S
O8     C2      1.205   1_545 D
O9     Ce1     2.266   1_466 S
O9     C2      1.365   1_455 S
O11    Ce0     2.277   1_554 S
O11    C3      1.277   1_554 A
O12    Ce0     2.336   1_554 S
O12    C4      1.308   1_455 A
O13    Ce1     2.321   1_565 S
O14    Ce0     2.334   1_554 S
O14    C5      1.205   1_565 D
O15    Ce0     2.266   1_644 S
O15    C5      1.365   1_655 S
O17    Ce1     2.277   1_556 S
O17    C6      1.277   1_556 A
O18    Ce1     2.336   1_556 S
O18    C7      1.308   1_655 A
O19    Ce0     2.321   1_545 S
C20    N25     1.357   .     A
C20    N26     1.357   .     A
C20    C21     1.403   1_654 A
C21    N22     1.357   .     A
C21    N29     1.357   .     A
C21    C20     1.403   1_456 A
N22    C23     1.360   .     A
C23    C24     1.408   .     A
C23    H30     1.082   .     S
C24    N25     1.363   1_456 A
C24    C4      1.475   1_456 S
N25    C24     1.363   1_654 A
N26    C27     1.360   .     A
C27    C28     1.408   .     A
C27    H31     1.082   .     S
C28    N29     1.363   1_654 A
C28    C7      1.475   1_654 S
N29    C28     1.363   1_456 A
C32    N37     1.358   .     A
C32    N38     1.357   .     A
C32    C33     1.404   1_544 A
C33    N34     1.357   .     A
C33    N41     1.358   .     A
C33    C32     1.404   1_566 A
N34    C35     1.360   .     A
C35    C36     1.406   .     A
C35    H42     1.082   .     S
C36    N37     1.362   1_566 A
N37    C36     1.362   1_544 A
N38    C39     1.360   .     A
C39    C40     1.406   .     A
C39    H43     1.082   .     S
C40    N41     1.362   1_544 A
N41    C40     1.362   1_566 A
C44    N49     1.357   .     A
C44    N50     1.358   .     A
C44    C45     1.404   1_465 A
C45    N46     1.358   .     A
C45    N53     1.357   .     A
C45    C44     1.404   1_645 A
N46    C47     1.360   .     A
C47    C48     1.405   .     A
C47    H54     1.082   .     S
C48    N49     1.362   1_645 A
C48    C5      1.467   1_655 S
N49    C48     1.362   1_465 A
N50    C51     1.360   .     A
C51    C52     1.405   .     A
C51    H55     1.083   .     S
C52    N53     1.362   1_465 A
C52    C2      1.467   1_455 S
N53    C52     1.362   1_645 A
