data_pcu+N505+E59
_audit_creation_date              2023-11-17
_audit_creation_method            'Materials Studio'
_symmetry_space_group_name_H-M    'P1'
_symmetry_Int_Tables_number       1
_symmetry_cell_setting            triclinic
loop_
_symmetry_equiv_pos_as_xyz
  x,y,z
_cell_length_a                    17.5767
_cell_length_b                    23.1470
_cell_length_c                    22.2038
_cell_angle_alpha                 130.4306
_cell_angle_beta                  66.9645
_cell_angle_gamma                 97.0505
loop_
_atom_site_label
_atom_site_type_symbol
_atom_site_fract_x
_atom_site_fract_y
_atom_site_fract_z
_atom_site_U_iso_or_equiv
_atom_site_adp_type
_atom_site_occupancy
Yb0    Yb    0.96401   0.06387  -0.02486   0.00000  Uiso   1.00
Yb1    Yb    0.00310   0.90821   1.04487   0.00000  Uiso   1.00
C2     C    -0.12912   0.86862   1.08958   0.00000  Uiso   1.00
O3     O     0.04670   0.02142   0.84807   0.00000  Uiso   1.00
O4     O     0.94851  -0.03987   0.86617   0.00000  Uiso   1.00
O5     O     0.85676   0.07448   0.07688   0.00000  Uiso   1.00
O6     O     0.92734   0.99540   1.06775   0.00000  Uiso   1.00
O7     O     1.07088   0.08789   0.91059   0.00000  Uiso   1.00
O8     O     1.01062   0.16519   0.05203   0.00000  Uiso   1.00
O9     O     0.97643   1.03377   0.13723   0.00000  Uiso   1.00
O10    O     0.08668   0.97632   0.10631   0.00000  Uiso   1.00
C11    C     1.00935  -0.03658   0.81327   0.00000  Uiso   1.00
O12    O     0.04683  -0.00028  -0.02638   0.00000  Uiso   1.00
O13    O     0.09221   0.88855   0.92914   0.00000  Uiso   1.00
O14    O    -0.09301   0.91221   0.14164   0.00000  Uiso   1.00
C15    C     0.85736   1.03646   0.09991   0.00000  Uiso   1.00
O16    O    -0.09481   0.84932   1.01435   0.00000  Uiso   1.00
C17    C     1.06909   0.15019  -0.01586   0.00000  Uiso   1.00
C18    C     0.04122   1.04030   0.15103   0.00000  Uiso   1.00
C19    C     0.09548  -0.06603   0.91436   0.00000  Uiso   1.00
C20    C     0.04965   0.39448   0.05648   0.00000  Uiso   1.00
C21    C    -0.02391   0.52264   0.13619   0.00000  Uiso   1.00
H22    H     0.80043   0.55930   0.98915   0.00000  Uiso   1.00
C23    C     1.01219   0.42274   0.98219   0.00000  Uiso   1.00
C24    C     1.04984   0.37134  -0.01992   0.00000  Uiso   1.00
N25    N     0.81179   0.79041   0.12640   0.00000  Uiso   1.00
N26    N     0.09793   0.25774   0.98958   0.00000  Uiso   1.00
O27    O     0.78995   0.68072   1.01026   0.00000  Uiso   1.00
O28    O     0.10766   0.36630   0.11513   0.00000  Uiso   1.00
H29    H     0.76734   0.81240   1.06528   0.00000  Uiso   1.00
H30    H     0.74414   0.89265   0.17743   0.00000  Uiso   1.00
H31    H     0.86674   0.47079   0.98682   0.00000  Uiso   1.00
H32    H    -0.07216   0.73615   0.13836   0.00000  Uiso   1.00
H33    H    -0.00805   0.64804   0.13748   0.00000  Uiso   1.00
H34    H     0.82095   0.81555   0.18199   0.00000  Uiso   1.00
H35    H     0.01197   0.49097   0.19431   0.00000  Uiso   1.00
H36    H     0.14140   0.23181   0.04864   0.00000  Uiso   1.00
H37    H     0.19137   0.16743   0.93216   0.00000  Uiso   1.00
H38    H    -0.05265   0.58091   0.19734   0.00000  Uiso   1.00
H39    H     1.07995   0.31410   0.91803   0.00000  Uiso   1.00
H40    H     1.01345   0.40339   0.92238   0.00000  Uiso   1.00
H41    H     0.07955   0.23493   0.93974   0.00000  Uiso   1.00
C42    C     0.84209   0.57954   1.02184   0.00000  Uiso   1.00
C43    C     0.81786   0.70809   1.06448   0.00000  Uiso   1.00
C44    C     0.79276   0.84199   0.11540   0.00000  Uiso   1.00
C45    C     0.93409   0.55280   1.06232   0.00000  Uiso   1.00
C46    C     0.85730   0.65551   1.06531   0.00000  Uiso   1.00
C47    C     0.88018   0.52874   1.02022   0.00000  Uiso   1.00
C48    C    -0.08795   0.67921   1.10672   0.00000  Uiso   1.00
C49    C    -0.05052   0.62854   0.10577   0.00000  Uiso   1.00
C50    C     0.01301   0.47106   0.13435   0.00000  Uiso   1.00
C51    C     0.08710   0.34017   0.05639   0.00000  Uiso   1.00
C52    C     0.13034   0.20238   0.98949   0.00000  Uiso   1.00
C53    C    -0.02540   0.49871   0.06027   0.00000  Uiso   1.00
C54    C     0.64553   0.95446   0.02809   0.00000  Uiso   1.00
C55    C     0.55459   0.88386  -0.04708   0.00000  Uiso   1.00
H56    H     0.45587  -0.02024   0.80593   0.00000  Uiso   1.00
C57    C     0.57223   0.01040   0.99883   0.00000  Uiso   1.00
C58    C     0.62645   0.01533   1.03362   0.00000  Uiso   1.00
N59    N     0.24164   0.88498   0.81399   0.00000  Uiso   1.00
N60    N     0.70846   0.03174   0.13901   0.00000  Uiso   1.00
O61    O     0.30820  -0.02660   0.80663   0.00000  Uiso   1.00
O62    O     0.74810   0.89987   0.02865   0.00000  Uiso   1.00
H63    H     0.16000  -0.04352   0.82874   0.00000  Uiso   1.00
H64    H     0.14115   0.85933   0.77617   0.00000  Uiso   1.00
H65    H     0.55334  -0.01498   0.86260   0.00000  Uiso   1.00
H66    H     0.28833   0.88933  -0.08257   0.00000  Uiso   1.00
H67    H     0.38593   0.89428  -0.02660   0.00000  Uiso   1.00
H68    H     0.25260   0.83477   0.80279   0.00000  Uiso   1.00
H69    H     0.62340   0.84065  -0.01837   0.00000  Uiso   1.00
H70    H     0.78428   1.00062   0.17134   0.00000  Uiso   1.00
H71    H     0.76303   0.10116   0.22860   0.00000  Uiso   1.00
H72    H     0.52771   0.83230  -0.07848   0.00000  Uiso   1.00
H73    H     0.65437   0.06632   1.06363   0.00000  Uiso   1.00
H74    H     0.55823   0.05838   1.00445   0.00000  Uiso   1.00
H75    H     0.66265   0.08011   0.17567   0.00000  Uiso   1.00
C76    C     0.44001  -0.03928   0.84218   0.00000  Uiso   1.00
C77    C     0.30465  -0.06750   0.82399   0.00000  Uiso   1.00
C78    C     0.15841   0.90885   0.82900   0.00000  Uiso   1.00
C79    C     0.47726  -0.06006   0.92230   0.00000  Uiso   1.00
C80    C     0.36492  -0.06698   0.85593   0.00000  Uiso   1.00
C81    C     0.49561  -0.03593   0.87492   0.00000  Uiso   1.00
C82    C     0.34661   0.90890  -0.09662   0.00000  Uiso   1.00
C83    C     0.40236   0.91204  -0.06413   0.00000  Uiso   1.00
C84    C     0.60959   0.88843  -0.01316   0.00000  Uiso   1.00
C85    C     0.70386   0.95889   0.06364   0.00000  Uiso   1.00
C86    C     0.77776   0.04249   0.16421   0.00000  Uiso   1.00
C87    C     0.53551   0.94473  -0.04163   0.00000  Uiso   1.00
C88    C     0.08628   0.96743   0.58588   0.00000  Uiso   1.00
C89    C     0.12745   0.95806   0.46075   0.00000  Uiso   1.00
H90    H     0.89767   0.12708   0.47171   0.00000  Uiso   1.00
C91    C     1.01449   0.06289   0.60193   0.00000  Uiso   1.00
C92    C     1.02557   0.03373   0.63723   0.00000  Uiso   1.00
N93    N     1.07274   0.11540   0.27756   0.00000  Uiso   1.00
N94    N     0.03017   0.93750   0.68265   0.00000  Uiso   1.00
O95    O     0.93797   0.11238   0.33899   0.00000  Uiso   1.00
O96    O     0.16838   0.90569   0.59712   0.00000  Uiso   1.00
H97    H     1.00817   0.16400   0.25237   0.00000  Uiso   1.00
H98    H     1.11856   0.12598   0.18228   0.00000  Uiso   1.00
H99    H     0.91950   0.09124   0.54578   0.00000  Uiso   1.00
H100   H     0.16213   1.04664   0.29794   0.00000  Uiso   1.00
H101   H     0.18823   1.01656   0.37504   0.00000  Uiso   1.00
H102   H     0.13286   0.11882   0.27661   0.00000  Uiso   1.00
H103   H     0.18413   0.87981   0.45856   0.00000  Uiso   1.00
H104   H     0.10227   0.87367   0.68768   0.00000  Uiso   1.00
H105   H    -0.00362   0.85838   0.70191   0.00000  Uiso   1.00
H106   H     0.16625   0.92621   0.39249   0.00000  Uiso   1.00
H107   H     0.98754   0.06393   0.70525   0.00000  Uiso   1.00
H108   H     0.96869   0.11502   0.64316   0.00000  Uiso   1.00
H109   H     0.96961   0.96071   0.70176   0.00000  Uiso   1.00
C110   C     0.96103   0.10310   0.45059   0.00000  Uiso   1.00
C111   C     1.01002   0.10733   0.33151   0.00000  Uiso   1.00
C112   C     1.06034   0.11616   0.21656   0.00000  Uiso   1.00
C113   C     1.05381   0.05047   0.46846   0.00000  Uiso   1.00
C114   C     1.02787   0.09093   0.37994   0.00000  Uiso   1.00
C115   C     0.97359   0.08325   0.49402   0.00000  Uiso   1.00
C116   C     0.10951   1.05896   0.35326   0.00000  Uiso   1.00
C117   C     0.12459   1.03975   0.39599   0.00000  Uiso   1.00
C118   C     0.13728   0.93103   0.49862   0.00000  Uiso   1.00
C119   C     0.09777   0.93547   0.62253   0.00000  Uiso   1.00
C120   C     0.03687   0.90280   0.71726   0.00000  Uiso   1.00
C121   C     0.06677   1.02335   0.50934   0.00000  Uiso   1.00
loop_
_geom_bond_atom_site_label_1
_geom_bond_atom_site_label_2
_geom_bond_distance
_geom_bond_site_symmetry_2
_ccdc_geom_bond_type
Yb0    O5      2.186   .     S
Yb0    O8      2.125   .     S
Yb0    O3      2.141   1_654 S
Yb0    O4      2.125   1_554 S
Yb0    O7      2.136   1_554 S
Yb0    O12     2.180   1_655 S
Yb1    O13     2.184   .     S
Yb1    O16     2.102   .     S
Yb1    O6      2.214   1_455 S
Yb1    O9      2.173   1_456 S
Yb1    O10     2.171   1_556 S
Yb1    O14     2.102   1_556 S
C2     O16     1.290   .     A
C2     O14     1.289   1_556 A
C2     C44     1.493   1_456 S
O3     Yb0     2.141   1_456 S
O3     C11     1.290   1_455 A
O4     C11     1.281   .     A
O4     Yb0     2.125   1_556 S
O5     C15     1.275   1_545 A
O6     Yb1     2.214   1_655 S
O6     C15     1.283   1_556 A
O7     Yb0     2.136   1_556 S
O7     C17     1.290   1_556 A
O8     C17     1.283   .     A
O9     Yb1     2.173   1_654 S
O9     C18     1.259   1_655 A
O10    C18     1.257   .     A
O10    Yb1     2.171   1_554 S
C11    O3      1.290   1_655 A
C11    C120    1.492   1_645 S
O12    Yb0     2.180   1_455 S
O12    C19     1.273   1_554 A
O13    C19     1.278   1_565 A
O14    Yb1     2.102   1_554 S
O14    C2      1.289   1_554 A
C15    O5      1.275   1_565 A
C15    O6      1.283   1_554 A
C15    C86     1.497   1_565 S
C17    O7      1.290   1_554 A
C17    C52     1.492   1_654 S
C18    O9      1.259   1_455 A
C18    C112    1.496   1_465 S
C19    O12     1.273   1_556 A
C19    O13     1.278   1_545 A
C19    C78     1.497   1_545 S
C20    C50     1.407   .     A
C20    C51     1.488   .     S
C20    C24     1.408   1_455 A
C21    H38     1.083   .     S
C21    C50     1.398   .     A
C21    C53     1.403   .     A
H22    C42     1.083   .     S
C23    H40     1.083   .     S
C23    C24     1.397   1_556 A
C23    C53     1.403   1_656 A
C24    C20     1.408   1_655 A
C24    C23     1.397   1_554 A
C24    H39     1.080   1_554 S
N25    H34     1.044   .     S
N25    C44     1.462   .     S
N25    C43     1.439   1_554 S
N26    H41     1.043   .     S
N26    C52     1.463   .     S
N26    C51     1.440   1_556 S
O27    C43     1.220   .     D
O28    C51     1.220   .     D
H29    C44     1.110   1_556 S
H30    C44     1.110   .     S
H31    C47     1.084   .     S
H32    C48     1.081   1_554 S
H33    C49     1.083   .     S
H35    C50     1.083   .     S
H36    C52     1.111   1_554 S
H37    C52     1.111   .     S
H39    C24     1.080   1_556 S
C42    C46     1.407   .     A
C42    C47     1.397   .     A
C43    C46     1.486   .     S
C43    N25     1.439   1_556 S
C44    H29     1.110   1_554 S
C44    C2      1.493   1_654 S
C45    C47     1.404   .     A
C45    C49     1.404   1_656 A
C45    C53     1.482   1_656 S
C46    C48     1.408   1_655 A
C48    H32     1.081   1_556 S
C48    C46     1.408   1_455 A
C48    C49     1.398   1_556 A
C49    C45     1.404   1_454 A
C49    C48     1.398   1_554 A
C51    N26     1.440   1_554 S
C52    H36     1.111   1_556 S
C52    C17     1.492   1_456 S
C53    C23     1.403   1_454 A
C53    C45     1.482   1_454 S
C54    C84     1.405   .     A
C54    C85     1.479   .     S
C54    C58     1.404   1_564 A
C55    H72     1.084   .     S
C55    C84     1.398   .     A
C55    C87     1.406   .     A
H56    C76     1.083   .     S
C57    C58     1.398   .     A
C57    H74     1.083   .     S
C57    C87     1.406   1_546 A
C58    H73     1.082   .     S
C58    C54     1.404   1_546 A
N59    H68     1.045   .     S
N59    C78     1.461   .     S
N59    C77     1.436   1_565 S
N60    H75     1.044   .     S
N60    C86     1.462   .     S
N60    C85     1.436   1_545 S
O61    C77     1.220   .     D
O62    C85     1.219   .     D
H63    C78     1.103   1_545 S
H64    C78     1.110   .     S
H65    C81     1.083   .     S
H66    C82     1.082   .     S
H67    C83     1.083   .     S
H69    C84     1.084   .     S
H70    C86     1.104   1_565 S
H71    C86     1.111   .     S
C76    C80     1.406   .     A
C76    C81     1.398   .     A
C77    C80     1.483   .     S
C77    N59     1.436   1_545 S
C78    H63     1.103   1_565 S
C78    C19     1.497   1_565 S
C79    C81     1.405   .     A
C79    C83     1.405   1_546 A
C79    C87     1.483   1_546 S
C80    C82     1.407   1_546 A
C82    C83     1.398   .     A
C82    C80     1.407   1_564 A
C83    C79     1.405   1_564 A
C85    N60     1.436   1_565 S
C86    H70     1.104   1_545 S
C86    C15     1.497   1_545 S
C87    C57     1.406   1_564 A
C87    C79     1.483   1_564 S
C88    C118    1.406   .     A
C88    C119    1.482   .     S
C88    C92     1.405   1_465 A
C89    H106    1.082   .     S
C89    C118    1.397   .     A
C89    C121    1.402   .     A
H90    C110    1.083   .     S
C91    C92     1.395   .     A
C91    H108    1.082   .     S
C91    C121    1.482   1_645 S
C92    H107    1.082   .     S
C92    C88     1.405   1_645 A
N93    C111    1.375   .     S
N93    C112    1.465   .     S
N93    H102    1.043   1_655 S
N94    C119    1.374   .     S
N94    C120    1.465   .     S
N94    H109    1.045   1_455 S
O95    C111    1.221   .     D
O96    C119    1.221   .     D
H97    C112    1.112   .     S
H98    C112    1.112   .     S
H99    C115    1.082   .     S
H100   C116    1.080   .     S
H101   C117    1.083   .     S
H102   N93     1.043   1_455 S
H103   C118    1.083   .     S
H104   C120    1.110   .     S
H105   C120    1.112   .     S
H109   N94     1.045   1_655 S
C110   C114    1.409   .     A
C110   C115    1.398   .     A
C111   C114    1.490   .     S
C112   C18     1.496   1_645 S
C113   C115    1.401   .     A
C113   C117    1.480   1_645 S
C113   C121    1.485   1_645 S
C114   C116    1.409   1_645 A
C116   C117    1.393   .     A
C116   C114    1.409   1_465 A
C117   C113    1.480   1_465 S
C120   C11     1.492   1_465 S
C121   C91     1.482   1_465 S
C121   C113    1.485   1_465 S
