data_pcu+N248+E220
_audit_creation_date              2023-11-17
_audit_creation_method            'Materials Studio'
_symmetry_space_group_name_H-M    'P1'
_symmetry_Int_Tables_number       1
_symmetry_cell_setting            triclinic
loop_
_symmetry_equiv_pos_as_xyz
  x,y,z
_cell_length_a                    11.3310
_cell_length_b                    10.0419
_cell_length_c                    13.7645
_cell_angle_alpha                 83.5820
_cell_angle_beta                  89.2167
_cell_angle_gamma                 68.8582
loop_
_atom_site_label
_atom_site_type_symbol
_atom_site_fract_x
_atom_site_fract_y
_atom_site_fract_z
_atom_site_U_iso_or_equiv
_atom_site_adp_type
_atom_site_occupancy
O0     O     0.78332   1.00300   0.89917   0.00000  Uiso   1.00
Yb1    Yb    0.96593   0.02373   0.08791   0.00000  Uiso   1.00
C2     C     0.96580   1.01008   0.27292   0.00000  Uiso   1.00
Yb3    Yb   -0.03557   1.02400   0.87432   0.00000  Uiso   1.00
O4     O     0.77750   0.02014   0.06503   0.00000  Uiso   1.00
C5     C     0.98984   0.25145   0.93168   0.00000  Uiso   1.00
C6     C     0.72778   0.00791  -0.01699   0.00000  Uiso   1.00
O7     O     0.91221   0.13336   0.73141   0.00000  Uiso   1.00
C8     C    -0.03259   0.01738   0.69248   0.00000  Uiso   1.00
O9     O     1.00537   0.80053   0.14447   0.00000  Uiso   1.00
O10    O     0.03949   0.86759   0.99527   0.00000  Uiso   1.00
O11    O     0.16076   0.01050   0.07063   0.00000  Uiso   1.00
O12    O     0.02144   0.90504   0.75264   0.00000  Uiso   1.00
O13    O     0.16417   1.00651   0.90257   0.00000  Uiso   1.00
C14    C     0.02090   0.76370   0.06180   0.00000  Uiso   1.00
C15    C     0.22041   0.99760   0.98808   0.00000  Uiso   1.00
O16    O     0.00794   0.89751   0.22819   0.00000  Uiso   1.00
O17    O     0.92179   0.12837   0.21694   0.00000  Uiso   1.00
O18    O     0.05567   0.18333   0.86946   0.00000  Uiso   1.00
O19    O     0.90380   0.19233  -0.03113   0.00000  Uiso   1.00
C20    C     1.02220   0.62426   0.03631   0.00000  Uiso   1.00
C21    C     0.94403   0.55570   1.08360   0.00000  Uiso   1.00
C22    C     0.93487   0.43457   1.04782   0.00000  Uiso   1.00
C23    C     0.00360   0.37826   0.96709   0.00000  Uiso   1.00
C24    C     0.08323   0.44408  -0.07825   0.00000  Uiso   1.00
C25    C     0.09108   0.56716  -0.04465   0.00000  Uiso   1.00
O26    O     0.74862   0.62809   1.16316   0.00000  Uiso   1.00
O27    O     0.92260   0.61024   0.24698   0.00000  Uiso   1.00
N28    N     0.86799   0.61116   1.16435   0.00000  Uiso   1.00
H29    H     0.13723   0.40222  -0.14079   0.00000  Uiso   1.00
H30    H     0.15010   0.61898  -0.08275   0.00000  Uiso   1.00
H31    H     0.87335   0.38426   1.08368   0.00000  Uiso   1.00
C32    C     0.35472  -0.01336  -0.01148   0.00000  Uiso   1.00
C33    C     0.43234   0.94492   0.07500   0.00000  Uiso   1.00
C34    C     0.55269   0.95568   0.07265   0.00000  Uiso   1.00
C35    C     0.60020   0.99935   0.98507   0.00000  Uiso   1.00
C36    C     0.52544   0.03351   0.89911   0.00000  Uiso   1.00
C37    C     0.40409   0.02857   0.90099   0.00000  Uiso   1.00
O38    O     0.34818   0.78418   0.16303   0.00000  Uiso   1.00
O39    O     0.42403   0.91510   0.24808   0.00000  Uiso   1.00
N40    N     0.39353   0.88603   0.16430   0.00000  Uiso   1.00
H41    H     0.55952   0.06774   0.83046   0.00000  Uiso   1.00
H42    H     0.34765   0.06117   0.83364   0.00000  Uiso   1.00
H43    H     0.61111   0.92507   0.13899   0.00000  Uiso   1.00
C44    C     0.96696   0.00588   0.38090   0.00000  Uiso   1.00
C45    C     1.04701   0.88626   0.44323   0.00000  Uiso   1.00
C46    C     1.04663   0.89127   0.54474   0.00000  Uiso   1.00
C47    C    -0.03190   0.01351   0.58559   0.00000  Uiso   1.00
C48    C    -0.10999   0.13212   0.52362   0.00000  Uiso   1.00
C49    C    -0.11053   0.12828   0.42263   0.00000  Uiso   1.00
O50    O     0.25357   0.72275   0.42278   0.00000  Uiso   1.00
O51    O     1.08939   0.66969   0.37402   0.00000  Uiso   1.00
N52    N     1.13264   0.76130   0.40515   0.00000  Uiso   1.00
H53    H    -0.17136   0.22792   0.55326   0.00000  Uiso   1.00
H54    H    -0.17221   0.22184   0.37691   0.00000  Uiso   1.00
H55    H     1.10850   0.79924   0.59164   0.00000  Uiso   1.00
loop_
_geom_bond_atom_site_label_1
_geom_bond_atom_site_label_2
_geom_bond_distance
_geom_bond_site_symmetry_2
_ccdc_geom_bond_type
O0     C6      1.304   1_566 A
O0     Yb3     2.156   1_655 S
Yb1    O4      2.176   .     S
Yb1    O17     2.127   .     S
Yb1    O19     2.144   .     S
Yb1    Yb3     2.940   1_644 S
Yb1    O9      2.174   1_545 S
Yb1    O10     2.063   1_644 S
Yb1    O11     2.175   1_655 S
Yb1    O16     2.146   1_645 S
C2     O16     1.282   1_655 A
C2     O17     1.277   1_565 A
C2     C44     1.482   1_565 S
Yb3    O10     2.110   .     S
Yb3    O12     2.124   .     S
Yb3    O13     2.242   .     S
Yb3    O0      2.156   1_455 S
Yb3    Yb1     2.940   1_466 S
Yb3    O7      2.123   1_465 S
Yb3    O18     2.191   1_565 S
Yb3    O19     2.157   1_466 S
O4     C6      1.306   .     A
C5     O18     1.226   1_655 D
C5     O19     1.379   1_556 S
C5     C23     1.472   1_655 S
C6     O0      1.304   1_544 A
C6     C35     1.479   1_544 S
O7     Yb3     2.123   1_645 S
O7     C8      1.281   1_655 A
C8     C47     1.476   .     S
C8     O7      1.281   1_455 A
C8     O12     1.281   1_545 A
O9     Yb1     2.174   1_565 S
O9     C14     1.226   1_655 D
O10    Yb1     2.063   1_466 S
O10    C14     1.382   1_556 S
O11    Yb1     2.175   1_455 S
O11    C15     1.309   1_544 A
O12    C8      1.281   1_565 A
O13    C15     1.325   .     A
C14    O9      1.226   1_455 D
C14    O10     1.382   1_554 S
C14    C20     1.476   1_455 S
C15    O11     1.309   1_566 A
C15    C32     1.486   1_566 S
O16    Yb1     2.146   1_465 S
O16    C2      1.282   1_455 A
O17    C2      1.277   1_545 A
O18    Yb3     2.191   1_545 S
O18    C5      1.226   1_455 D
O19    Yb3     2.157   1_644 S
O19    C5      1.379   1_554 S
C20    C21     1.416   1_554 A
C20    C25     1.406   1_655 A
C20    C14     1.476   1_655 S
C21    C22     1.400   .     A
C21    N28     1.433   .     S
C21    C20     1.416   1_556 A
C22    H31     1.083   .     S
C22    C23     1.400   1_655 A
C23    C22     1.400   1_455 A
C23    C24     1.401   1_556 A
C23    C5      1.472   1_455 S
C24    C25     1.399   .     A
C24    H29     1.083   .     S
C24    C23     1.401   1_554 A
C25    H30     1.083   .     S
C25    C20     1.406   1_455 A
O26    N28     1.301   .     A
O27    N28     1.300   1_554 A
N28    O27     1.300   1_556 A
C32    C33     1.420   1_545 A
C32    C37     1.407   1_554 A
C32    C15     1.486   1_544 S
C33    C34     1.406   .     A
C33    N40     1.437   .     S
C33    C32     1.420   1_565 A
C34    H43     1.083   .     S
C34    C35     1.403   1_554 A
C35    C34     1.403   1_556 A
C35    C36     1.401   1_565 A
C35    C6      1.479   1_566 S
C36    C37     1.393   .     A
C36    H41     1.083   .     S
C36    C35     1.401   1_545 A
C37    H42     1.083   .     S
C37    C32     1.407   1_556 A
O38    N40     1.301   .     A
O39    N40     1.301   .     A
C44    C45     1.417   1_545 A
C44    C49     1.406   1_655 A
C44    C2      1.482   1_545 S
C45    C46     1.404   .     A
C45    N52     1.430   .     S
C45    C44     1.417   1_565 A
C46    H55     1.084   .     S
C46    C47     1.403   1_665 A
C47    C48     1.401   .     A
C47    C46     1.403   1_445 A
C48    C49     1.395   .     A
C48    H53     1.083   .     S
C49    H54     1.083   .     S
C49    C44     1.406   1_455 A
O50    N52     1.301   1_455 A
O51    N52     1.300   .     A
N52    O50     1.301   1_655 A
