data_pcu+N144+E1
_audit_creation_date              2023-11-17
_audit_creation_method            'Materials Studio'
_symmetry_space_group_name_H-M    'P1'
_symmetry_Int_Tables_number       1
_symmetry_cell_setting            triclinic
loop_
_symmetry_equiv_pos_as_xyz
  x,y,z
_cell_length_a                    21.5746
_cell_length_b                    20.0319
_cell_length_c                    20.0301
_cell_angle_alpha                 90.5046
_cell_angle_beta                  80.9974
_cell_angle_gamma                 114.4460
loop_
_atom_site_label
_atom_site_type_symbol
_atom_site_fract_x
_atom_site_fract_y
_atom_site_fract_z
_atom_site_U_iso_or_equiv
_atom_site_adp_type
_atom_site_occupancy
C0     C     0.20222   0.08028   0.01946   0.00000  Uiso   1.00
Er1    Er    0.93847   0.96167   1.00268   0.00000  Uiso   1.00
Er2    Er    0.05617   1.01418  -0.01586   0.00000  Uiso   1.00
C3     C    -0.00477   0.98691   0.13406   0.00000  Uiso   1.00
O4     O     0.05990   0.12370  -0.01366   0.00000  Uiso   1.00
C5     C    -0.00063   0.84858  -0.00752   0.00000  Uiso   1.00
C6     C     0.99781   0.98804   0.85307   0.00000  Uiso   1.00
C7     C     0.81930  -0.02752   1.02064   0.00000  Uiso   1.00
O8     O     0.17995   0.11038   0.06396   0.00000  Uiso   1.00
O9     O     0.17109   0.06091   0.96222   0.00000  Uiso   1.00
O10    O     0.05469   1.01592   0.87576   0.00000  Uiso   1.00
O11    O     0.94088   0.96054   0.89411   0.00000  Uiso   1.00
O12    O     0.05568   0.90587  -0.01790   0.00000  Uiso   1.00
O13    O     0.94250   0.85490   1.00288   0.00000  Uiso   1.00
C14    C     1.00419   0.13195  -0.00768   0.00000  Uiso   1.00
O15    O     0.94620   0.07523  -0.00041   0.00000  Uiso   1.00
O16    O     0.05229   1.01042   0.09320   0.00000  Uiso   1.00
O17    O     0.93863   0.96349   0.11109   0.00000  Uiso   1.00
O18    O     0.87785   0.02732   1.01112   0.00000  Uiso   1.00
O19    O     0.82515  -0.08772   0.02052   0.00000  Uiso   1.00
C20    C     1.00189   0.63503  -0.00699   0.00000  Uiso   1.00
C21    C     0.94084   0.64251   0.98798   0.00000  Uiso   1.00
C22    C     0.93986   0.71188   0.98820   0.00000  Uiso   1.00
C23    C     0.00012   0.77512  -0.00734   0.00000  Uiso   1.00
C24    C     0.06113   0.76749  -0.00211   0.00000  Uiso   1.00
C25    C     0.06188   0.69807  -0.00155   0.00000  Uiso   1.00
C26    C     1.00307   0.56163  -0.00759   0.00000  Uiso   1.00
C27    C     1.03309   0.53995   0.04048   0.00000  Uiso   1.00
C28    C     1.03439   0.47076   0.03961   0.00000  Uiso   1.00
C29    C     1.00624   0.42199  -0.00976   0.00000  Uiso   1.00
C30    C     0.97683   0.44430   0.94175   0.00000  Uiso   1.00
C31    C     0.97491   0.51316   0.94310   0.00000  Uiso   1.00
C32    C     1.00665   0.34785  -0.01022   0.00000  Uiso   1.00
C33    C     0.95047   0.28698   0.97233   0.00000  Uiso   1.00
C34    C     0.95023   0.21719   0.97256   0.00000  Uiso   1.00
C35    C     0.00576   0.20634  -0.00929   0.00000  Uiso   1.00
C36    C     0.06245   0.26704   0.00720   0.00000  Uiso   1.00
C37    C     0.06288   0.33709   0.00683   0.00000  Uiso   1.00
H38    H     0.89375   0.59457   0.98453   0.00000  Uiso   1.00
H39    H     0.89209   0.71608   0.98430   0.00000  Uiso   1.00
H40    H     0.10822   0.81517   0.00209   0.00000  Uiso   1.00
H41    H     0.10957   0.69363   0.00239   0.00000  Uiso   1.00
H42    H     0.05465   0.57624   0.07931   0.00000  Uiso   1.00
H43    H     0.05658   0.45512   0.07825   0.00000  Uiso   1.00
H44    H     0.95613   0.40893   0.90204   0.00000  Uiso   1.00
H45    H     0.95246   0.52915   0.90484   0.00000  Uiso   1.00
H46    H     0.90609   0.29297   0.95937   0.00000  Uiso   1.00
H47    H     0.90690   0.17176   0.95764   0.00000  Uiso   1.00
H48    H     0.10606   0.26016   0.02126   0.00000  Uiso   1.00
H49    H     0.10744   0.38285   0.01959   0.00000  Uiso   1.00
C50    C     0.37601   0.03245   1.03722   0.00000  Uiso   1.00
C51    C     0.35135   0.02604   0.97551   0.00000  Uiso   1.00
C52    C     0.29523   0.04208   0.96980   0.00000  Uiso   1.00
C53    C     0.26231   0.06464   1.02571   0.00000  Uiso   1.00
C54    C     0.28564   0.06920   1.08796   0.00000  Uiso   1.00
C55    C     0.34218   0.05360   1.09357   0.00000  Uiso   1.00
C56    C     0.43818   0.01939   1.04187   0.00000  Uiso   1.00
C57    C     0.48990   0.06734   1.07603   0.00000  Uiso   1.00
C58    C     0.55014   0.05748   1.07733   0.00000  Uiso   1.00
C59    C     0.56016  -0.00046   1.04435   0.00000  Uiso   1.00
C60    C     0.50772  -0.04934   0.01147   0.00000  Uiso   1.00
C61    C     0.44753  -0.03938   0.01008   0.00000  Uiso   1.00
C62    C     0.62622  -0.00793   1.04171   0.00000  Uiso   1.00
C63    C     0.62728  -0.07754   1.04605   0.00000  Uiso   1.00
C64    C     0.69003  -0.08402   1.04006   0.00000  Uiso   1.00
C65    C     0.75287  -0.02107   1.02966   0.00000  Uiso   1.00
C66    C     0.75181   0.04841   1.02684   0.00000  Uiso   1.00
C67    C     0.68924   0.05490   1.03255   0.00000  Uiso   1.00
H68    H     0.37689   1.01081  -0.06900   0.00000  Uiso   1.00
H69    H     0.27834   1.03791   0.92123   0.00000  Uiso   1.00
H70    H     0.26042   0.08518   1.13225   0.00000  Uiso   1.00
H71    H     0.35955   0.05816   1.14196   0.00000  Uiso   1.00
H72    H     0.48442   0.11347   1.10049   0.00000  Uiso   1.00
H73    H     0.58907   0.09547   1.10394   0.00000  Uiso   1.00
H74    H     0.51401   0.90586  -0.01491   0.00000  Uiso   1.00
H75    H     0.40832   0.92246  -0.01615   0.00000  Uiso   1.00
H76    H     0.57956   0.87301   0.05424   0.00000  Uiso   1.00
H77    H     0.68947   0.86176   1.04302   0.00000  Uiso   1.00
H78    H     0.79935   0.09784   1.01947   0.00000  Uiso   1.00
H79    H     0.69043   0.10927   1.02801   0.00000  Uiso   1.00
C80    C    -0.00502   0.98704   0.34900   0.00000  Uiso   1.00
C81    C     0.05603   0.02728   0.30338   0.00000  Uiso   1.00
C82    C     0.05608   0.02718   0.23362   0.00000  Uiso   1.00
C83    C    -0.00500   0.98707   0.20791   0.00000  Uiso   1.00
C84    C    -0.06615   0.94711   0.25344   0.00000  Uiso   1.00
C85    C    -0.06613   0.94702   0.32325   0.00000  Uiso   1.00
C86    C    -0.00489   0.98697   0.42313   0.00000  Uiso   1.00
C87    C    -0.05951   0.99186   0.46823   0.00000  Uiso   1.00
C88    C    -0.05908   0.99240   0.53796   0.00000  Uiso   1.00
C89    C    -0.00389   0.98830   0.56415   0.00000  Uiso   1.00
C90    C     0.05068  -0.01666   0.51903   0.00000  Uiso   1.00
C91    C     0.05015  -0.01740   0.44933   0.00000  Uiso   1.00
C92    C    -0.00344   0.98868   0.63826   0.00000  Uiso   1.00
C93    C     0.05807   0.02785   0.66363   0.00000  Uiso   1.00
C94    C     0.05867   0.02719   0.73331   0.00000  Uiso   1.00
C95    C    -0.00241   0.98804   0.77924   0.00000  Uiso   1.00
C96    C    -0.06399   0.94920   0.75395   0.00000  Uiso   1.00
C97    C    -0.06443   0.94924   0.68426   0.00000  Uiso   1.00
H98    H     0.10367   0.05958   0.32170   0.00000  Uiso   1.00
H99    H     0.10390   0.05904   0.19982   0.00000  Uiso   1.00
H100   H    -0.11385   0.91516   0.23505   0.00000  Uiso   1.00
H101   H    -0.11376   0.91472   0.35707   0.00000  Uiso   1.00
H102   H    -0.10192   0.99683   0.44946   0.00000  Uiso   1.00
H103   H    -0.10126   0.99763   0.57128   0.00000  Uiso   1.00
H104   H     0.09350  -0.02081   0.53773   0.00000  Uiso   1.00
H105   H     0.09256  -0.02215   0.41592   0.00000  Uiso   1.00
H106   H     0.10569   0.05971   0.62956   0.00000  Uiso   1.00
H107   H     0.10690   0.05781   0.75121   0.00000  Uiso   1.00
H108   H    -0.11185   0.91816   0.78799   0.00000  Uiso   1.00
H109   H    -0.11241   0.91755   0.66630   0.00000  Uiso   1.00
loop_
_geom_bond_atom_site_label_1
_geom_bond_atom_site_label_2
_geom_bond_distance
_geom_bond_site_symmetry_2
_ccdc_geom_bond_type
C0     O8      1.219   .     D
C0     O9      1.391   1_554 S
C0     C53     1.477   1_554 S
Er1    O11     2.167   .     S
Er1    O13     2.176   .     S
Er1    O15     2.212   1_566 S
Er1    O17     2.172   1_556 S
Er1    O18     2.195   1_565 S
Er1    O19     2.194   1_566 S
Er2    O12     2.165   .     S
Er2    O16     2.174   .     S
Er2    O4      2.162   1_565 S
Er2    O9      2.228   1_564 S
Er2    O10     2.177   1_554 S
C3     O16     1.272   .     A
C3     C83     1.478   .     S
C3     O17     1.273   1_455 A
O4     Er2     2.162   1_545 S
O4     C14     1.267   1_455 A
C5     O12     1.268   .     A
C5     C23     1.478   .     S
C5     O13     1.270   1_454 A
C6     O11     1.273   .     A
C6     O10     1.276   1_655 A
C6     C95     1.480   1_655 S
C7     O18     1.272   .     A
C7     C65     1.475   .     S
C7     O19     1.263   1_556 A
O9     C0      1.391   1_556 S
O9     Er2     2.228   1_546 S
O10    Er2     2.177   1_556 S
O10    C6      1.276   1_455 A
O13    C5      1.270   1_656 A
C14    O15     1.283   .     A
C14    O4      1.267   1_655 A
C14    C35     1.477   1_655 S
O15    Er1     2.212   1_544 S
O17    Er1     2.172   1_554 S
O17    C3      1.273   1_655 A
O18    Er1     2.195   1_545 S
O19    Er1     2.194   1_544 S
O19    C7      1.263   1_554 A
C20    C26     1.481   .     S
C20    C21     1.404   1_554 A
C20    C25     1.404   1_655 A
C21    C22     1.399   .     A
C21    H38     1.083   .     S
C21    C20     1.404   1_556 A
C22    H39     1.083   .     S
C22    C23     1.405   1_656 A
C23    C24     1.406   .     A
C23    C22     1.405   1_454 A
C24    C25     1.398   .     A
C24    H40     1.083   .     S
C25    H41     1.083   .     S
C25    C20     1.404   1_455 A
C26    C27     1.404   .     A
C26    C31     1.404   1_554 A
C27    C28     1.398   .     A
C27    H42     1.083   1_655 S
C28    C29     1.408   .     A
C28    H43     1.082   1_655 S
C29    C32     1.489   .     S
C29    C30     1.407   1_554 A
C30    C31     1.397   .     A
C30    H44     1.083   .     S
C30    C29     1.407   1_556 A
C31    H45     1.083   .     S
C31    C26     1.404   1_556 A
C32    C33     1.407   1_554 A
C32    C37     1.408   1_655 A
C33    C34     1.396   .     A
C33    H46     1.083   .     S
C33    C32     1.407   1_556 A
C34    H47     1.082   .     S
C34    C35     1.403   1_656 A
C35    C36     1.404   .     A
C35    C34     1.403   1_454 A
C35    C14     1.477   1_455 S
C36    C37     1.400   .     A
C36    H48     1.084   .     S
C37    H49     1.083   .     S
C37    C32     1.408   1_455 A
H42    C27     1.083   1_455 S
H43    C28     1.082   1_455 S
C50    C51     1.405   .     A
C50    C55     1.406   .     A
C50    C56     1.485   .     S
C51    C52     1.396   .     A
C51    H68     1.083   1_546 S
C52    C53     1.404   .     A
C52    H69     1.082   1_545 S
C53    C54     1.405   .     A
C53    C0      1.477   1_556 S
C54    C55     1.399   .     A
C54    H70     1.083   .     S
C55    H71     1.083   .     S
C56    C57     1.406   .     A
C56    C61     1.405   1_556 A
C57    C58     1.397   .     A
C57    H72     1.083   .     S
C58    C59     1.407   .     A
C58    H73     1.083   .     S
C59    C62     1.486   .     S
C59    C60     1.406   1_556 A
C60    C61     1.397   .     A
C60    C59     1.406   1_554 A
C60    H74     1.083   1_545 S
C61    C56     1.405   1_554 A
C61    H75     1.083   1_545 S
C62    C63     1.408   .     A
C62    C67     1.406   .     A
C63    C64     1.400   .     A
C63    H76     1.084   1_546 S
C64    C65     1.405   .     A
C64    H77     1.083   1_545 S
C65    C66     1.403   .     A
C66    C67     1.396   .     A
C66    H78     1.081   .     S
C67    H79     1.083   .     S
H68    C51     1.083   1_564 S
H69    C52     1.082   1_565 S
H74    C60     1.083   1_565 S
H75    C61     1.083   1_565 S
H76    C63     1.084   1_564 S
H77    C64     1.083   1_565 S
C80    C85     1.406   .     A
C80    C86     1.485   .     S
C80    C81     1.406   1_565 A
C81    C82     1.397   .     A
C81    H98     1.083   .     S
C81    C80     1.406   1_545 A
C82    H99     1.084   .     S
C82    C83     1.406   1_545 A
C83    C84     1.405   .     A
C83    C82     1.406   1_565 A
C84    C85     1.398   .     A
C84    H100    1.084   .     S
C85    H101    1.083   .     S
C86    C87     1.405   .     A
C86    C91     1.405   1_565 A
C87    C88     1.398   .     A
C87    H102    1.083   .     S
C88    C89     1.406   .     A
C88    H103    1.083   .     S
C89    C92     1.486   .     S
C89    C90     1.405   1_565 A
C90    C91     1.398   .     A
C90    H104    1.083   .     S
C90    C89     1.405   1_545 A
C91    H105    1.083   .     S
C91    C86     1.405   1_545 A
C92    C97     1.406   .     A
C92    C93     1.406   1_565 A
C93    C94     1.398   .     A
C93    H106    1.083   .     S
C93    C92     1.406   1_545 A
C94    H107    1.083   .     S
C94    C95     1.406   1_545 A
C95    C96     1.405   .     A
C95    C94     1.406   1_565 A
C95    C6      1.480   1_455 S
C96    C97     1.397   .     A
C96    H108    1.083   .     S
C97    H109    1.083   .     S
