data_pcu+N144+E220
_audit_creation_date              2023-11-17
_audit_creation_method            'Materials Studio'
_symmetry_space_group_name_H-M    'P1'
_symmetry_Int_Tables_number       1
_symmetry_cell_setting            triclinic
loop_
_symmetry_equiv_pos_as_xyz
  x,y,z
_cell_length_a                    13.4730
_cell_length_b                    11.4099
_cell_length_c                    11.4089
_cell_angle_alpha                 90.0899
_cell_angle_beta                  71.6013
_cell_angle_gamma                 91.0014
loop_
_atom_site_label
_atom_site_type_symbol
_atom_site_fract_x
_atom_site_fract_y
_atom_site_fract_z
_atom_site_U_iso_or_equiv
_atom_site_adp_type
_atom_site_occupancy
C0     C     0.30681  -0.05196  -0.01665   0.00000  Uiso   1.00
Er1    Er    0.91286   0.99549   1.03427   0.00000  Uiso   1.00
Er2    Er    0.09006   0.99843  -0.03284   0.00000  Uiso   1.00
C3     C     0.00398   1.00242   0.24602   0.00000  Uiso   1.00
O4     O     0.08738   0.18885  -0.03913   0.00000  Uiso   1.00
C5     C    -0.00012   0.75062   0.00588   0.00000  Uiso   1.00
C6     C     1.00461   0.99515   0.75229   0.00000  Uiso   1.00
C7     C     0.72620  -0.00590   1.00530   0.00000  Uiso   1.00
O8     O     0.25407  -0.12452   0.05560   0.00000  Uiso   1.00
O9     O     0.26496   0.00515   0.90230   0.00000  Uiso   1.00
O10    O     0.09013   0.99038   0.77690   0.00000  Uiso   1.00
O11    O     0.91791   0.99918   0.84036   0.00000  Uiso   1.00
O12    O     0.08640   0.80782  -0.02420   0.00000  Uiso   1.00
O13    O     0.91443   0.80564   1.03079   0.00000  Uiso   1.00
C14    C     1.00132   0.24312  -0.00092   0.00000  Uiso   1.00
O15    O     0.91538   0.18538   0.03663   0.00000  Uiso   1.00
O16    O     0.08928   1.00797   0.15782   0.00000  Uiso   1.00
O17    O     0.91874   0.99270   0.22197   0.00000  Uiso   1.00
O18    O     0.81098  -0.00486   0.91548   0.00000  Uiso   1.00
O19    O     0.74290  -0.00616   0.10775   0.00000  Uiso   1.00
C20    C    -0.00099   0.62056   0.01028   0.00000  Uiso   1.00
C21    C     0.90858   0.55427   0.07636   0.00000  Uiso   1.00
C22    C     0.90994   0.43151   0.06888   0.00000  Uiso   1.00
C23    C     0.00069   0.37272   0.00155   0.00000  Uiso   1.00
C24    C     0.09087   0.43851   0.93995   0.00000  Uiso   1.00
C25    C     0.08981   0.56083   0.94362   0.00000  Uiso   1.00
O26    O     0.72444   0.56944   0.16089   0.00000  Uiso   1.00
O27    O     0.82510   0.68236   0.24020   0.00000  Uiso   1.00
N28    N     0.81681   0.60894   0.15621   0.00000  Uiso   1.00
H29    H     0.16210   0.39544   0.88762   0.00000  Uiso   1.00
H30    H     0.16017   0.60894   0.89257   0.00000  Uiso   1.00
H31    H     0.84063   0.38167   0.12008   0.00000  Uiso   1.00
C32    C     0.41367  -0.02427   0.98504   0.00000  Uiso   1.00
C33    C     0.43191   0.00424   0.09721   0.00000  Uiso   1.00
C34    C     0.53462   0.01016   0.10106   0.00000  Uiso   1.00
C35    C     0.61995  -0.00736   0.99456   0.00000  Uiso   1.00
C36    C     0.60187  -0.02813   0.88168   0.00000  Uiso   1.00
C37    C     0.49920  -0.03699   0.87712   0.00000  Uiso   1.00
O38    O     0.35418   0.00813   0.31509   0.00000  Uiso   1.00
O39    O     0.27335   0.09998   0.19824   0.00000  Uiso   1.00
N40    N     0.34747   0.03207   0.20637   0.00000  Uiso   1.00
H41    H     0.66677  -0.04118   0.79813   0.00000  Uiso   1.00
H42    H     0.48644  -0.05833   0.79038   0.00000  Uiso   1.00
H43    H     0.54798   0.03046   0.18773   0.00000  Uiso   1.00
C44    C     0.00370   1.00585   0.37581   0.00000  Uiso   1.00
C45    C     0.91879   1.05179   0.47183   0.00000  Uiso   1.00
C46    C     0.91926   1.04459   0.59445   0.00000  Uiso   1.00
C47    C     0.00444   0.99753   0.62296   0.00000  Uiso   1.00
C48    C     0.08925   0.95500   0.52732   0.00000  Uiso   1.00
C49    C     0.08812   0.95767   0.40539   0.00000  Uiso   1.00
O50    O     0.73971   1.10094   0.52382   0.00000  Uiso   1.00
O51    O     0.85358   0.18867   0.35899   0.00000  Uiso   1.00
N52    N     0.83412   1.11050   0.44665   0.00000  Uiso   1.00
H53    H     0.15557   0.91748   0.54707   0.00000  Uiso   1.00
H54    H     0.15269   0.91976   0.33405   0.00000  Uiso   1.00
H55    H     0.85450   1.08036   0.66741   0.00000  Uiso   1.00
loop_
_geom_bond_atom_site_label_1
_geom_bond_atom_site_label_2
_geom_bond_distance
_geom_bond_site_symmetry_2
_ccdc_geom_bond_type
C0     O8      1.217   .     D
C0     O9      1.393   1_554 S
C0     C32     1.475   1_554 S
Er1    O11     2.192   .     S
Er1    O13     2.167   .     S
Er1    O15     2.167   1_566 S
Er1    O17     2.168   1_556 S
Er1    O18     2.212   1_565 S
Er1    O19     2.176   1_566 S
Er2    O12     2.176   .     S
Er2    O16     2.174   .     S
Er2    O4      2.175   1_565 S
Er2    O9      2.236   1_564 S
Er2    O10     2.172   1_554 S
C3     O16     1.267   .     A
C3     C44     1.480   .     S
C3     O17     1.265   1_455 A
O4     Er2     2.175   1_545 S
O4     C14     1.274   1_455 A
C5     O12     1.274   .     A
C5     C20     1.485   .     S
C5     O13     1.272   1_454 A
C6     O11     1.279   .     A
C6     O10     1.271   1_655 A
C6     C47     1.477   1_655 S
C7     O18     1.271   .     A
C7     C35     1.475   .     S
C7     O19     1.258   1_556 A
O9     C0      1.393   1_556 S
O9     Er2     2.236   1_546 S
O10    Er2     2.172   1_556 S
O10    C6      1.271   1_455 A
O13    C5      1.272   1_656 A
C14    O15     1.273   .     A
C14    O4      1.274   1_655 A
C14    C23     1.479   1_655 S
O15    Er1     2.167   1_544 S
O17    Er1     2.168   1_554 S
O17    C3      1.265   1_655 A
O18    Er1     2.212   1_545 S
O19    Er1     2.176   1_544 S
O19    C7      1.258   1_554 A
C20    C21     1.419   1_455 A
C20    C25     1.407   1_554 A
C21    C22     1.403   .     A
C21    N28     1.436   .     S
C21    C20     1.419   1_655 A
C22    H31     1.084   .     S
C22    C23     1.403   1_655 A
C23    C22     1.403   1_455 A
C23    C24     1.402   1_554 A
C23    C14     1.479   1_455 S
C24    C25     1.396   .     A
C24    H29     1.083   .     S
C24    C23     1.402   1_556 A
C25    H30     1.083   .     S
C25    C20     1.407   1_556 A
O26    N28     1.301   .     A
O27    N28     1.302   .     A
C32    C37     1.405   .     A
C32    C33     1.414   1_556 A
C32    C0      1.475   1_556 S
C33    C34     1.399   .     A
C33    N40     1.436   .     S
C33    C32     1.414   1_554 A
C34    H43     1.083   .     S
C34    C35     1.401   1_554 A
C35    C36     1.403   .     A
C35    C34     1.401   1_556 A
C36    C37     1.403   .     A
C36    H41     1.083   .     S
C37    H42     1.083   .     S
O38    N40     1.302   .     A
O39    N40     1.301   .     A
C44    C49     1.405   .     A
C44    C45     1.418   1_455 A
C45    C46     1.404   .     A
C45    N52     1.438   .     S
C45    C44     1.418   1_655 A
C46    H55     1.083   .     S
C46    C47     1.403   1_655 A
C47    C48     1.401   .     A
C47    C46     1.403   1_455 A
C47    C6      1.477   1_455 S
C48    C49     1.396   .     A
C48    H53     1.083   .     S
C49    H54     1.082   .     S
O50    N52     1.301   .     A
O51    N52     1.301   1_545 A
N52    O51     1.301   1_565 A
