data_pcu+N205+E220
_audit_creation_date              2023-11-17
_audit_creation_method            'Materials Studio'
_symmetry_space_group_name_H-M    'P1'
_symmetry_Int_Tables_number       1
_symmetry_cell_setting            triclinic
loop_
_symmetry_equiv_pos_as_xyz
  x,y,z
_cell_length_a                    12.4649
_cell_length_b                    15.2089
_cell_length_c                    9.3560
_cell_angle_alpha                 73.8031
_cell_angle_beta                  71.5407
_cell_angle_gamma                 88.5198
loop_
_atom_site_label
_atom_site_type_symbol
_atom_site_fract_x
_atom_site_fract_y
_atom_site_fract_z
_atom_site_U_iso_or_equiv
_atom_site_adp_type
_atom_site_occupancy
Y0     Y     0.10118   0.13362  -0.05618   0.00000  Uiso   1.00
Y1     Y     0.93362   0.85488   0.97444   0.00000  Uiso   1.00
C2     C     0.72671   0.90663   0.96736   0.00000  Uiso   1.00
C3     C     0.96242  -0.03616   0.19880   0.00000  Uiso   1.00
C4     C     0.07724   0.31057  -0.05342   0.00000  Uiso   1.00
C5     C     0.29762   0.05839  -0.04113   0.00000  Uiso   1.00
C6     C     0.06299   1.03407   0.72207   0.00000  Uiso   1.00
C7     C     0.98379   0.68046   0.97217   0.00000  Uiso   1.00
O8     O     0.81312   0.92051   0.84542   0.00000  Uiso   1.00
O9     O     0.74726   0.86425   0.09171   0.00000  Uiso   1.00
O10    O     0.95089   0.03096   0.08979   0.00000  Uiso   1.00
O11    O     0.95933   0.88275   0.18391   0.00000  Uiso   1.00
O12    O     0.08451   0.28305   0.82895   0.00000  Uiso   1.00
O13    O     0.08609   0.24719   0.06053   0.00000  Uiso   1.00
O14    O     0.22197   0.07151   0.07528   0.00000  Uiso   1.00
O15    O     0.27211   0.08690   0.83387   0.00000  Uiso   1.00
O16    O     0.07331   0.96788   0.83415   0.00000  Uiso   1.00
O17    O     0.07560   0.11614   0.72731   0.00000  Uiso   1.00
O18    O     0.94845   0.70519   0.09594   0.00000  Uiso   1.00
O19    O     0.98872   0.74478   0.85149   0.00000  Uiso   1.00
C20    C     0.01457   0.58663   0.96641   0.00000  Uiso   1.00
C21    C     0.04662   0.52393   0.08668   0.00000  Uiso   1.00
C22    C     0.06841   0.43434   0.07754   0.00000  Uiso   1.00
C23    C     1.05970   0.40630  -0.04923   0.00000  Uiso   1.00
C24    C     1.03307   0.46996   0.82891   0.00000  Uiso   1.00
C25    C     1.01143   0.55928   0.83622   0.00000  Uiso   1.00
O26    O     0.04197   0.49264   0.35071   0.00000  Uiso   1.00
O27    O     0.12808   0.62605   0.17944   0.00000  Uiso   1.00
N28    N     0.06464   0.55139   0.21234   0.00000  Uiso   1.00
H29    H     1.02997   0.45121   0.72705   0.00000  Uiso   1.00
H30    H     0.98899   0.60637   0.74143   0.00000  Uiso   1.00
H31    H     0.09301   0.38643   0.16919   0.00000  Uiso   1.00
C32    C     0.40554   1.01664  -0.03445   0.00000  Uiso   1.00
C33    C     0.42184   0.96702   1.10936   0.00000  Uiso   1.00
C34    C     0.52659   0.93034   1.10754   0.00000  Uiso   1.00
C35    C     0.61468  -0.06005   0.96573   0.00000  Uiso   1.00
C36    C     0.59765  -0.01244  -0.17643   0.00000  Uiso   1.00
C37    C     0.49415   0.02532  -0.17621   0.00000  Uiso   1.00
O38    O     0.30249   0.86864   1.34765   0.00000  Uiso   1.00
O39    O     0.30217   1.02115   1.31484   0.00000  Uiso   1.00
N40    N     0.33470   0.95274   1.25743   0.00000  Uiso   1.00
H41    H     0.66483  -0.00330  -0.28739   0.00000  Uiso   1.00
H42    H     0.48448   0.06372  -0.28772   0.00000  Uiso   1.00
H43    H     0.53873   0.89414   1.21812   0.00000  Uiso   1.00
C44    C     0.98669   0.97977   0.33556   0.00000  Uiso   1.00
C45    C     0.01366   0.90799   0.45045   0.00000  Uiso   1.00
C46    C     0.04225   0.92829   0.57160   0.00000  Uiso   1.00
C47    C     0.03391   0.01605   0.59143   0.00000  Uiso   1.00
C48    C     1.00393   0.08667   0.48075   0.00000  Uiso   1.00
C49    C     0.98186   0.06869   0.35350   0.00000  Uiso   1.00
O50    O     0.08730   0.76155   0.47625   0.00000  Uiso   1.00
O51    O    -0.09435   0.77409   0.48666   0.00000  Uiso   1.00
N52    N     0.00551   0.81339   0.45410   0.00000  Uiso   1.00
H53    H     0.99897   0.15597   0.49074   0.00000  Uiso   1.00
H54    H     0.95835   0.12428   0.27060   0.00000  Uiso   1.00
H55    H     0.07257   0.87559   0.64988   0.00000  Uiso   1.00
loop_
_geom_bond_atom_site_label_1
_geom_bond_atom_site_label_2
_geom_bond_distance
_geom_bond_site_symmetry_2
_ccdc_geom_bond_type
Y0     O13     2.262   .     S
Y0     O14     2.263   .     S
Y0     O10     2.270   1_455 S
Y0     O12     2.262   1_554 S
Y0     O15     2.246   1_554 S
Y0     O17     2.234   1_554 S
Y1     O8      2.260   .     S
Y1     O19     2.261   .     S
Y1     O9      2.253   1_556 S
Y1     O11     2.234   1_556 S
Y1     O16     2.271   1_655 S
Y1     O18     2.275   1_556 S
C2     O8      1.267   .     A
C2     O9      1.263   1_556 A
C2     C35     1.477   1_565 S
C3     O10     1.268   .     A
C3     O11     1.282   1_545 A
C3     C44     1.486   1_545 S
C4     O13     1.254   .     A
C4     O12     1.259   1_554 A
C4     C23     1.476   1_455 S
C5     O14     1.256   .     A
C5     O15     1.266   1_554 A
C5     C32     1.484   1_545 S
C6     O16     1.273   .     A
C6     O17     1.278   1_565 A
C6     C47     1.474   1_565 S
C7     O19     1.256   .     A
C7     O18     1.260   1_556 A
C7     C20     1.479   1_655 S
O9     Y1      2.253   1_554 S
O9     C2      1.263   1_554 A
O10    Y0      2.270   1_655 S
O11    Y1      2.234   1_554 S
O11    C3      1.282   1_565 A
O12    Y0      2.262   1_556 S
O12    C4      1.259   1_556 A
O15    Y0      2.246   1_556 S
O15    C5      1.266   1_556 A
O16    Y1      2.271   1_455 S
O17    Y0      2.234   1_556 S
O17    C6      1.278   1_545 A
O18    Y1      2.275   1_554 S
O18    C7      1.260   1_554 A
C20    C21     1.415   1_556 A
C20    C25     1.404   1_455 A
C20    C7      1.479   1_455 S
C21    C22     1.403   .     A
C21    N28     1.433   .     S
C21    C20     1.415   1_554 A
C22    H31     1.080   .     S
C22    C23     1.402   1_455 A
C23    C22     1.402   1_655 A
C23    C24     1.398   1_554 A
C23    C4      1.476   1_655 S
C24    C25     1.394   .     A
C24    H29     1.080   .     S
C24    C23     1.398   1_556 A
C25    H30     1.082   .     S
C25    C20     1.404   1_655 A
O26    N28     1.300   .     A
O27    N28     1.306   .     A
C32    C33     1.421   1_554 A
C32    C37     1.407   1_565 A
C32    C5      1.484   1_565 S
C33    C34     1.404   .     A
C33    N40     1.427   .     S
C33    C32     1.421   1_556 A
C34    H43     1.083   .     S
C34    C35     1.402   1_565 A
C35    C34     1.402   1_545 A
C35    C36     1.404   1_556 A
C35    C2      1.477   1_545 S
C36    C37     1.398   .     A
C36    H41     1.083   .     S
C36    C35     1.404   1_554 A
C37    H42     1.086   .     S
C37    C32     1.407   1_545 A
O38    N40     1.311   .     A
O39    N40     1.299   .     A
C44    C45     1.420   1_655 A
C44    C49     1.406   1_565 A
C44    C3      1.486   1_565 S
C45    C46     1.401   .     A
C45    N52     1.435   .     S
C45    C44     1.420   1_455 A
C46    H55     1.074   .     S
C46    C47     1.395   1_565 A
C47    C46     1.395   1_545 A
C47    C48     1.403   1_455 A
C47    C6      1.474   1_545 S
C48    C49     1.400   .     A
C48    H53     1.082   .     S
C48    C47     1.403   1_655 A
C49    H54     1.081   .     S
C49    C44     1.406   1_545 A
O50    N52     1.306   .     A
O51    N52     1.302   .     A
