data_pcu+N139+E35
_audit_creation_date              2023-11-17
_audit_creation_method            'Materials Studio'
_symmetry_space_group_name_H-M    'P1'
_symmetry_Int_Tables_number       1
_symmetry_cell_setting            triclinic
loop_
_symmetry_equiv_pos_as_xyz
  x,y,z
_cell_length_a                    17.7947
_cell_length_b                    13.2981
_cell_length_c                    18.2584
_cell_angle_alpha                 133.4095
_cell_angle_beta                  91.7846
_cell_angle_gamma                 99.9507
loop_
_atom_site_label
_atom_site_type_symbol
_atom_site_fract_x
_atom_site_fract_y
_atom_site_fract_z
_atom_site_U_iso_or_equiv
_atom_site_adp_type
_atom_site_occupancy
C0     C     0.07402   0.05693   0.26120   0.00000  Uiso   1.00
Sm1    Sm    0.90496  -0.05297   0.87516   0.00000  Uiso   1.00
Sm2    Sm    0.09815   1.08742   0.13506   0.00000  Uiso   1.00
C3     C     1.05437   0.20145   0.04633   0.00000  Uiso   1.00
C4     C     0.23398   1.05994   0.08020   0.00000  Uiso   1.00
O5     O    -0.05195   0.85173   0.73143   0.00000  Uiso   1.00
O6     O     0.91366   0.04885   0.81655   0.00000  Uiso   1.00
O7     O    -0.02835   0.98370   0.05190   0.00000  Uiso   1.00
O8     O     0.90186   0.79802   0.89695   0.00000  Uiso   1.00
O9     O     0.82380   0.05117  -0.01813   0.00000  Uiso   1.00
O10    O     0.77634   0.87017   0.81837   0.00000  Uiso   1.00
O11    O     1.06534   0.16660   0.28062   0.00000  Uiso   1.00
O12    O     0.09558   0.96425   0.17642   0.00000  Uiso   1.00
O13    O     1.02812   0.06601   0.97097   0.00000  Uiso   1.00
O14    O     0.09595   0.24940   0.12745   0.00000  Uiso   1.00
O15    O     0.16899   0.98539   1.01437   0.00000  Uiso   1.00
O16    O     0.22801   0.14949   0.17498   0.00000  Uiso   1.00
C17    C     0.94030   0.95219   0.73856   0.00000  Uiso   1.00
C18    C    -0.05877   0.84916   0.98036   0.00000  Uiso   1.00
C19    C     0.76288  -0.03473   0.90890   0.00000  Uiso   1.00
C20    C    -0.02066   0.58042   0.02010   0.00000  Uiso   1.00
C21    C     0.94226   0.68929   1.08795   0.00000  Uiso   1.00
C22    C     0.92968   0.77641   1.07412   0.00000  Uiso   1.00
C23    C    -0.04719   0.75459  -0.00739   0.00000  Uiso   1.00
C24    C    -0.01361   0.64171  -0.07611   0.00000  Uiso   1.00
N25    N    -0.00070   0.55946  -0.06028   0.00000  Uiso   1.00
C26    C    -0.00206   0.48698   0.03200   0.00000  Uiso   1.00
N27    N     0.02949   0.37915  -0.04176   0.00000  Uiso   1.00
C28    C     0.04815   0.28756  -0.03823   0.00000  Uiso   1.00
C29    C     0.03446   0.30068   0.04266   0.00000  Uiso   1.00
C30    C     1.00486   0.41345   1.12174   0.00000  Uiso   1.00
C31    C     0.98599   0.50639   1.11658   0.00000  Uiso   1.00
H32    H     0.90230   0.86164   1.12750   0.00000  Uiso   1.00
H33    H     0.00395   0.62104  -0.14072   0.00000  Uiso   1.00
H34    H     0.07345   0.20426  -0.09878   0.00000  Uiso   1.00
H35    H     0.99545   0.42838   1.18667   0.00000  Uiso   1.00
H36    H     0.92344   0.70948   1.15166   0.00000  Uiso   1.00
H37    H     0.96300   0.59173   1.17882   0.00000  Uiso   1.00
C38    C     0.45413   0.00779  -0.00922   0.00000  Uiso   1.00
C39    C     0.38550  -0.06594   0.91516   0.00000  Uiso   1.00
C40    C     0.31370  -0.04869   0.94451   0.00000  Uiso   1.00
C41    C     0.30987   0.04291   0.04882   0.00000  Uiso   1.00
C42    C     0.37959   1.11681   0.12218   0.00000  Uiso   1.00
N43    N     0.44881   1.09742   0.09172   0.00000  Uiso   1.00
C44    C     0.53240  -0.00691  -0.03479   0.00000  Uiso   1.00
N45    N     0.59667   1.09071   0.04271   0.00000  Uiso   1.00
C46    C     0.67053   1.08441   0.02668   0.00000  Uiso   1.00
C47    C     0.68310  -0.02556  -0.07247   0.00000  Uiso   1.00
C48    C     0.61805  -0.12789   0.84646   0.00000  Uiso   1.00
C49    C     0.54278  -0.11957   0.86484   0.00000  Uiso   1.00
H50    H     0.26122  -0.10661   0.88555   0.00000  Uiso   1.00
H51    H     0.37911   1.18879   0.20351   0.00000  Uiso   1.00
H52    H     0.71922   1.16526   0.09142   0.00000  Uiso   1.00
H53    H     0.62530  -0.21532   0.76896   0.00000  Uiso   1.00
H54    H     0.38636  -0.13497   0.83431   0.00000  Uiso   1.00
H55    H     0.49407  -0.20249   0.80101   0.00000  Uiso   1.00
C56    C     1.02351  -0.00793   0.45544   0.00000  Uiso   1.00
C57    C     0.06001   0.90041   0.37322   0.00000  Uiso   1.00
C58    C     0.07715   0.92272   0.31057   0.00000  Uiso   1.00
C59    C     0.05882   0.03635   0.32967   0.00000  Uiso   1.00
C60    C     1.02391   0.12710   0.41338   0.00000  Uiso   1.00
N61    N     1.00727   0.10277   0.47297   0.00000  Uiso   1.00
C62    C     1.00269  -0.02490   0.52524   0.00000  Uiso   1.00
N63    N     0.97806   0.08129   0.61101   0.00000  Uiso   1.00
C64    C     0.95755   0.07579   0.67945   0.00000  Uiso   1.00
C65    C    -0.03863  -0.04211   0.66373   0.00000  Uiso   1.00
C66    C    -0.01401   0.84646   0.57584   0.00000  Uiso   1.00
C67    C     0.00631   0.85404   0.50617   0.00000  Uiso   1.00
H68    H     0.10446   0.85052   0.24682   0.00000  Uiso   1.00
H69    H     1.00891   0.21612   0.43076   0.00000  Uiso   1.00
H70    H     0.93866   0.16398   0.74622   0.00000  Uiso   1.00
H71    H    -0.01076   0.75320   0.56072   0.00000  Uiso   1.00
H72    H     0.07588   0.81275   0.35667   0.00000  Uiso   1.00
H73    H     0.02358   0.76486   0.43838   0.00000  Uiso   1.00
loop_
_geom_bond_atom_site_label_1
_geom_bond_atom_site_label_2
_geom_bond_distance
_geom_bond_site_symmetry_2
_ccdc_geom_bond_type
C0     C59     1.475   .     S
C0     O11     1.284   1_455 A
C0     O12     1.281   1_545 A
Sm1    O6      2.221   .     S
Sm1    O13     2.264   .     S
Sm1    O5      2.230   1_645 S
Sm1    O8      2.266   1_545 S
Sm1    O9      2.227   1_556 S
Sm1    O10     2.224   1_545 S
Sm2    O7      2.261   .     S
Sm2    O12     2.221   .     S
Sm2    O11     2.231   1_465 S
Sm2    O14     2.259   1_565 S
Sm2    O15     2.223   1_554 S
Sm2    O16     2.227   1_565 S
C3     O13     1.272   1_554 A
C3     O14     1.272   1_655 A
C3     C29     1.467   1_655 S
C4     O15     1.282   1_554 A
C4     O16     1.283   1_565 A
C4     C41     1.476   1_565 S
O5     Sm1     2.230   1_465 S
O5     C17     1.283   1_455 A
O6     C17     1.281   1_545 A
O7     C18     1.269   1_554 A
O8     Sm1     2.266   1_565 S
O8     C18     1.272   1_655 A
O9     Sm1     2.227   1_554 S
O9     C19     1.283   1_554 A
O10    Sm1     2.224   1_565 S
O10    C19     1.283   1_565 A
O11    C0      1.284   1_655 A
O11    Sm2     2.231   1_645 S
O12    C0      1.281   1_565 A
O13    C3      1.272   1_556 A
O14    Sm2     2.259   1_545 S
O14    C3      1.272   1_455 A
O15    Sm2     2.223   1_556 S
O15    C4      1.282   1_556 A
O16    Sm2     2.227   1_545 S
O16    C4      1.283   1_545 A
C17    O5      1.283   1_655 A
C17    O6      1.281   1_565 A
C17    C65     1.476   1_665 S
C18    O7      1.269   1_556 A
C18    O8      1.272   1_455 A
C18    C23     1.465   1_556 S
C19    O9      1.283   1_556 A
C19    O10     1.283   1_545 A
C19    C47     1.476   1_556 S
C20    N25     1.365   .     A
C20    C26     1.486   .     S
C20    C21     1.408   1_454 A
C21    C22     1.394   .     A
C21    H36     1.079   .     S
C21    C20     1.408   1_656 A
C22    H32     1.084   .     S
C22    C23     1.398   1_656 A
C23    C24     1.397   .     A
C23    C22     1.398   1_454 A
C23    C18     1.465   1_554 S
C24    N25     1.360   .     A
C24    H33     1.083   .     S
C26    N27     1.362   .     A
C26    C31     1.410   1_454 A
N27    C28     1.358   .     A
C28    C29     1.398   .     A
C28    H34     1.083   .     S
C29    C30     1.398   1_454 A
C29    C3      1.467   1_455 S
C30    C31     1.397   .     A
C30    H35     1.083   .     S
C30    C29     1.398   1_656 A
C31    H37     1.079   .     S
C31    C26     1.410   1_656 A
C38    C44     1.485   .     S
C38    C39     1.407   1_554 A
C38    N43     1.363   1_545 A
C39    C40     1.395   .     A
C39    H54     1.080   .     S
C39    C38     1.407   1_556 A
C40    H50     1.083   .     S
C40    C41     1.401   1_556 A
C41    C40     1.401   1_554 A
C41    C42     1.402   1_545 A
C41    C4      1.476   1_545 S
C42    N43     1.360   .     A
C42    H51     1.082   .     S
C42    C41     1.402   1_565 A
N43    C38     1.363   1_565 A
C44    N45     1.363   1_545 A
C44    C49     1.407   1_554 A
N45    C46     1.360   .     A
N45    C44     1.363   1_565 A
C46    H52     1.082   .     S
C46    C47     1.402   1_565 A
C47    C46     1.402   1_545 A
C47    C48     1.401   1_554 A
C47    C19     1.476   1_554 S
C48    C49     1.395   .     A
C48    H53     1.083   .     S
C48    C47     1.401   1_556 A
C49    H55     1.080   .     S
C49    C44     1.407   1_556 A
C56    N61     1.363   .     A
C56    C62     1.486   .     S
C56    C57     1.407   1_645 A
C57    C58     1.395   .     A
C57    H72     1.079   .     S
C57    C56     1.407   1_465 A
C58    H68     1.083   .     S
C58    C59     1.402   1_565 A
C59    C58     1.402   1_545 A
C59    C60     1.400   1_455 A
C60    N61     1.359   .     A
C60    H69     1.082   .     S
C60    C59     1.400   1_655 A
C62    N63     1.362   .     A
C62    C67     1.409   1_645 A
N63    C64     1.358   .     A
C64    H70     1.082   .     S
C64    C65     1.402   1_655 A
C65    C64     1.402   1_455 A
C65    C66     1.401   1_545 A
C65    C17     1.476   1_445 S
C66    C67     1.397   .     A
C66    H71     1.083   .     S
C66    C65     1.401   1_565 A
C67    H73     1.079   .     S
C67    C62     1.409   1_465 A
